data_crystal
 
_cell_length_a    26.34300
_cell_length_b    26.34300
_cell_length_c    26.34300
_cell_angle_alpha 90.00000
_cell_angle_beta  90.00000
_cell_angle_gamma 90.00000
 
_symmetry_space_group_name_Hall 'P 1'
_symmetry_space_group_name_H-M  'P 1'
 
loop_
_symmetry_equiv_pos_as_xyz
 'x,y,z' 
 
loop_
_atom_site_label
_atom_site_type_symbol
_atom_site_fract_x
_atom_site_fract_y
_atom_site_fract_z
_atom_site_charge
Cu         Cu      0.28530   0.28530   0.00000   0.0000000000
Cu         Cu      0.71470   0.71470   0.00000   0.0000000000
Cu         Cu      0.71470   0.28530   0.00000   0.0000000000
Cu         Cu      0.28530   0.71470   0.00000   0.0000000000
Cu         Cu      0.00000   0.28530   0.28530   0.0000000000
Cu         Cu      0.00000   0.71470   0.71470   0.0000000000
Cu         Cu      0.00000   0.71470   0.28530   0.0000000000
Cu         Cu      0.00000   0.28530   0.71470   0.0000000000
Cu         Cu      0.28530   0.00000   0.28530   0.0000000000
Cu         Cu      0.71470   0.00000   0.71470   0.0000000000
Cu         Cu      0.28530   0.00000   0.71470   0.0000000000
Cu         Cu      0.71470   0.00000   0.28530   0.0000000000
Cu         Cu      0.28530   0.78530   0.50000   0.0000000000
Cu         Cu      0.71470   0.21470   0.50000   0.0000000000
Cu         Cu      0.71470   0.78530   0.50000   0.0000000000
Cu         Cu      0.28530   0.21470   0.50000   0.0000000000
Cu         Cu      0.00000   0.78530   0.78530   0.0000000000
Cu         Cu      0.00000   0.21470   0.21470   0.0000000000
Cu         Cu      0.00000   0.21470   0.78530   0.0000000000
Cu         Cu      0.00000   0.78530   0.21470   0.0000000000
Cu         Cu      0.28530   0.50000   0.78530   0.0000000000
Cu         Cu      0.71470   0.50000   0.21470   0.0000000000
Cu         Cu      0.28530   0.50000   0.21470   0.0000000000
Cu         Cu      0.71470   0.50000   0.78530   0.0000000000
Cu         Cu      0.78530   0.28530   0.50000   0.0000000000
Cu         Cu      0.21470   0.71470   0.50000   0.0000000000
Cu         Cu      0.21470   0.28530   0.50000   0.0000000000
Cu         Cu      0.78530   0.71470   0.50000   0.0000000000
Cu         Cu      0.50000   0.28530   0.78530   0.0000000000
Cu         Cu      0.50000   0.71470   0.21470   0.0000000000
Cu         Cu      0.50000   0.71470   0.78530   0.0000000000
Cu         Cu      0.50000   0.28530   0.21470   0.0000000000
Cu         Cu      0.78530   0.00000   0.78530   0.0000000000
Cu         Cu      0.21470   0.00000   0.21470   0.0000000000
Cu         Cu      0.78530   0.00000   0.21470   0.0000000000
Cu         Cu      0.21470   0.00000   0.78530   0.0000000000
Cu         Cu      0.78530   0.78530   0.00000   0.0000000000
Cu         Cu      0.21470   0.21470   0.00000   0.0000000000
Cu         Cu      0.21470   0.78530   0.00000   0.0000000000
Cu         Cu      0.78530   0.21470   0.00000   0.0000000000
Cu         Cu      0.50000   0.78530   0.28530   0.0000000000
Cu         Cu      0.50000   0.21470   0.71470   0.0000000000
Cu         Cu      0.50000   0.21470   0.28530   0.0000000000
Cu         Cu      0.50000   0.78530   0.71470   0.0000000000
Cu         Cu      0.78530   0.50000   0.28530   0.0000000000
Cu         Cu      0.21470   0.50000   0.71470   0.0000000000
Cu         Cu      0.78530   0.50000   0.71470   0.0000000000
Cu         Cu      0.21470   0.50000   0.28530   0.0000000000
O          O       0.31660   0.24310   0.94780   0.0000000000
O          O       0.68340   0.75690   0.94780   0.0000000000
O          O       0.68340   0.24310   0.05220   0.0000000000
O          O       0.31660   0.75690   0.05220   0.0000000000
O          O       0.94780   0.31660   0.24310   0.0000000000
O          O       0.94780   0.68340   0.75690   0.0000000000
O          O       0.05220   0.68340   0.24310   0.0000000000
O          O       0.05220   0.31660   0.75690   0.0000000000
O          O       0.24310   0.94780   0.31660   0.0000000000
O          O       0.75690   0.94780   0.68340   0.0000000000
O          O       0.24310   0.05220   0.68340   0.0000000000
O          O       0.75690   0.05220   0.31660   0.0000000000
O          O       0.24310   0.31660   0.05220   0.0000000000
O          O       0.75690   0.68340   0.05220   0.0000000000
O          O       0.24310   0.68340   0.94780   0.0000000000
O          O       0.75690   0.31660   0.94780   0.0000000000
O          O       0.31660   0.94780   0.75690   0.0000000000
O          O       0.68340   0.94780   0.24310   0.0000000000
O          O       0.68340   0.05220   0.75690   0.0000000000
O          O       0.31660   0.05220   0.24310   0.0000000000
O          O       0.94780   0.24310   0.68340   0.0000000000
O          O       0.94780   0.75690   0.31660   0.0000000000
O          O       0.05220   0.24310   0.31660   0.0000000000
O          O       0.05220   0.75690   0.68340   0.0000000000
O          O       0.68340   0.75690   0.05220   0.0000000000
O          O       0.31660   0.24310   0.05220   0.0000000000
O          O       0.31660   0.75690   0.94780   0.0000000000
O          O       0.68340   0.24310   0.94780   0.0000000000
O          O       0.05220   0.68340   0.75690   0.0000000000
O          O       0.05220   0.31660   0.24310   0.0000000000
O          O       0.94780   0.31660   0.75690   0.0000000000
O          O       0.94780   0.68340   0.24310   0.0000000000
O          O       0.75690   0.05220   0.68340   0.0000000000
O          O       0.24310   0.05220   0.31660   0.0000000000
O          O       0.75690   0.94780   0.31660   0.0000000000
O          O       0.24310   0.94780   0.68340   0.0000000000
O          O       0.75690   0.68340   0.94780   0.0000000000
O          O       0.24310   0.31660   0.94780   0.0000000000
O          O       0.75690   0.31660   0.05220   0.0000000000
O          O       0.24310   0.68340   0.05220   0.0000000000
O          O       0.68340   0.05220   0.24310   0.0000000000
O          O       0.31660   0.05220   0.75690   0.0000000000
O          O       0.31660   0.94780   0.24310   0.0000000000
O          O       0.68340   0.94780   0.75690   0.0000000000
O          O       0.05220   0.75690   0.31660   0.0000000000
O          O       0.05220   0.24310   0.68340   0.0000000000
O          O       0.94780   0.75690   0.68340   0.0000000000
O          O       0.94780   0.24310   0.31660   0.0000000000
O          O       0.31660   0.74310   0.44780   0.0000000000
O          O       0.68340   0.25690   0.44780   0.0000000000
O          O       0.68340   0.74310   0.55220   0.0000000000
O          O       0.31660   0.25690   0.55220   0.0000000000
O          O       0.94780   0.81660   0.74310   0.0000000000
O          O       0.94780   0.18340   0.25690   0.0000000000
O          O       0.05220   0.18340   0.74310   0.0000000000
O          O       0.05220   0.81660   0.25690   0.0000000000
O          O       0.24310   0.44780   0.81660   0.0000000000
O          O       0.75690   0.44780   0.18340   0.0000000000
O          O       0.24310   0.55220   0.18340   0.0000000000
O          O       0.75690   0.55220   0.81660   0.0000000000
O          O       0.24310   0.81660   0.55220   0.0000000000
O          O       0.75690   0.18340   0.55220   0.0000000000
O          O       0.24310   0.18340   0.44780   0.0000000000
O          O       0.75690   0.81660   0.44780   0.0000000000
O          O       0.31660   0.44780   0.25690   0.0000000000
O          O       0.68340   0.44780   0.74310   0.0000000000
O          O       0.68340   0.55220   0.25690   0.0000000000
O          O       0.31660   0.55220   0.74310   0.0000000000
O          O       0.94780   0.74310   0.18340   0.0000000000
O          O       0.94780   0.25690   0.81660   0.0000000000
O          O       0.05220   0.74310   0.81660   0.0000000000
O          O       0.05220   0.25690   0.18340   0.0000000000
O          O       0.68340   0.25690   0.55220   0.0000000000
O          O       0.31660   0.74310   0.55220   0.0000000000
O          O       0.31660   0.25690   0.44780   0.0000000000
O          O       0.68340   0.74310   0.44780   0.0000000000
O          O       0.05220   0.18340   0.25690   0.0000000000
O          O       0.05220   0.81660   0.74310   0.0000000000
O          O       0.94780   0.81660   0.25690   0.0000000000
O          O       0.94780   0.18340   0.74310   0.0000000000
O          O       0.75690   0.55220   0.18340   0.0000000000
O          O       0.24310   0.55220   0.81660   0.0000000000
O          O       0.75690   0.44780   0.81660   0.0000000000
O          O       0.24310   0.44780   0.18340   0.0000000000
O          O       0.75690   0.18340   0.44780   0.0000000000
O          O       0.24310   0.81660   0.44780   0.0000000000
O          O       0.75690   0.81660   0.55220   0.0000000000
O          O       0.24310   0.18340   0.55220   0.0000000000
O          O       0.68340   0.55220   0.74310   0.0000000000
O          O       0.31660   0.55220   0.25690   0.0000000000
O          O       0.31660   0.44780   0.74310   0.0000000000
O          O       0.68340   0.44780   0.25690   0.0000000000
O          O       0.05220   0.25690   0.81660   0.0000000000
O          O       0.05220   0.74310   0.18340   0.0000000000
O          O       0.94780   0.25690   0.18340   0.0000000000
O          O       0.94780   0.74310   0.81660   0.0000000000
O          O       0.81660   0.24310   0.44780   0.0000000000
O          O       0.18340   0.75690   0.44780   0.0000000000
O          O       0.18340   0.24310   0.55220   0.0000000000
O          O       0.81660   0.75690   0.55220   0.0000000000
O          O       0.44780   0.31660   0.74310   0.0000000000
O          O       0.44780   0.68340   0.25690   0.0000000000
O          O       0.55220   0.68340   0.74310   0.0000000000
O          O       0.55220   0.31660   0.25690   0.0000000000
O          O       0.74310   0.94780   0.81660   0.0000000000
O          O       0.25690   0.94780   0.18340   0.0000000000
O          O       0.74310   0.05220   0.18340   0.0000000000
O          O       0.25690   0.05220   0.81660   0.0000000000
O          O       0.74310   0.31660   0.55220   0.0000000000
O          O       0.25690   0.68340   0.55220   0.0000000000
O          O       0.74310   0.68340   0.44780   0.0000000000
O          O       0.25690   0.31660   0.44780   0.0000000000
O          O       0.81660   0.94780   0.25690   0.0000000000
O          O       0.18340   0.94780   0.74310   0.0000000000
O          O       0.18340   0.05220   0.25690   0.0000000000
O          O       0.81660   0.05220   0.74310   0.0000000000
O          O       0.44780   0.24310   0.18340   0.0000000000
O          O       0.44780   0.75690   0.81660   0.0000000000
O          O       0.55220   0.24310   0.81660   0.0000000000
O          O       0.55220   0.75690   0.18340   0.0000000000
O          O       0.18340   0.75690   0.55220   0.0000000000
O          O       0.81660   0.24310   0.55220   0.0000000000
O          O       0.81660   0.75690   0.44780   0.0000000000
O          O       0.18340   0.24310   0.44780   0.0000000000
O          O       0.55220   0.68340   0.25690   0.0000000000
O          O       0.55220   0.31660   0.74310   0.0000000000
O          O       0.44780   0.31660   0.25690   0.0000000000
O          O       0.44780   0.68340   0.74310   0.0000000000
O          O       0.25690   0.05220   0.18340   0.0000000000
O          O       0.74310   0.05220   0.81660   0.0000000000
O          O       0.25690   0.94780   0.81660   0.0000000000
O          O       0.74310   0.94780   0.18340   0.0000000000
O          O       0.25690   0.68340   0.44780   0.0000000000
O          O       0.74310   0.31660   0.44780   0.0000000000
O          O       0.25690   0.31660   0.55220   0.0000000000
O          O       0.74310   0.68340   0.55220   0.0000000000
O          O       0.18340   0.05220   0.74310   0.0000000000
O          O       0.81660   0.05220   0.25690   0.0000000000
O          O       0.81660   0.94780   0.74310   0.0000000000
O          O       0.18340   0.94780   0.25690   0.0000000000
O          O       0.55220   0.75690   0.81660   0.0000000000
O          O       0.55220   0.24310   0.18340   0.0000000000
O          O       0.44780   0.75690   0.18340   0.0000000000
O          O       0.44780   0.24310   0.81660   0.0000000000
O          O       0.81660   0.74310   0.94780   0.0000000000
O          O       0.18340   0.25690   0.94780   0.0000000000
O          O       0.18340   0.74310   0.05220   0.0000000000
O          O       0.81660   0.25690   0.05220   0.0000000000
O          O       0.44780   0.81660   0.24310   0.0000000000
O          O       0.44780   0.18340   0.75690   0.0000000000
O          O       0.55220   0.18340   0.24310   0.0000000000
O          O       0.55220   0.81660   0.75690   0.0000000000
O          O       0.74310   0.44780   0.31660   0.0000000000
O          O       0.25690   0.44780   0.68340   0.0000000000
O          O       0.74310   0.55220   0.68340   0.0000000000
O          O       0.25690   0.55220   0.31660   0.0000000000
O          O       0.74310   0.81660   0.05220   0.0000000000
O          O       0.25690   0.18340   0.05220   0.0000000000
O          O       0.74310   0.18340   0.94780   0.0000000000
O          O       0.25690   0.81660   0.94780   0.0000000000
O          O       0.81660   0.44780   0.75690   0.0000000000
O          O       0.18340   0.44780   0.24310   0.0000000000
O          O       0.18340   0.55220   0.75690   0.0000000000
O          O       0.81660   0.55220   0.24310   0.0000000000
O          O       0.44780   0.74310   0.68340   0.0000000000
O          O       0.44780   0.25690   0.31660   0.0000000000
O          O       0.55220   0.74310   0.31660   0.0000000000
O          O       0.55220   0.25690   0.68340   0.0000000000
O          O       0.18340   0.25690   0.05220   0.0000000000
O          O       0.81660   0.74310   0.05220   0.0000000000
O          O       0.81660   0.25690   0.94780   0.0000000000
O          O       0.18340   0.74310   0.94780   0.0000000000
O          O       0.55220   0.18340   0.75690   0.0000000000
O          O       0.55220   0.81660   0.24310   0.0000000000
O          O       0.44780   0.81660   0.75690   0.0000000000
O          O       0.44780   0.18340   0.24310   0.0000000000
O          O       0.25690   0.55220   0.68340   0.0000000000
O          O       0.74310   0.55220   0.31660   0.0000000000
O          O       0.25690   0.44780   0.31660   0.0000000000
O          O       0.74310   0.44780   0.68340   0.0000000000
O          O       0.25690   0.18340   0.94780   0.0000000000
O          O       0.74310   0.81660   0.94780   0.0000000000
O          O       0.25690   0.81660   0.05220   0.0000000000
O          O       0.74310   0.18340   0.05220   0.0000000000
O          O       0.18340   0.55220   0.24310   0.0000000000
O          O       0.81660   0.55220   0.75690   0.0000000000
O          O       0.81660   0.44780   0.24310   0.0000000000
O          O       0.18340   0.44780   0.75690   0.0000000000
O          O       0.55220   0.25690   0.31660   0.0000000000
O          O       0.55220   0.74310   0.68340   0.0000000000
O          O       0.44780   0.25690   0.68340   0.0000000000
O          O       0.44780   0.74310   0.31660   0.0000000000
C          C       0.29680   0.20320   0.93130   0.0000000000
C          C       0.70320   0.79680   0.93130   0.0000000000
C          C       0.70320   0.20320   0.06870   0.0000000000
C          C       0.29680   0.79680   0.06870   0.0000000000
C          C       0.93130   0.29680   0.20320   0.0000000000
C          C       0.93130   0.70320   0.79680   0.0000000000
C          C       0.06870   0.70320   0.20320   0.0000000000
C          C       0.06870   0.29680   0.79680   0.0000000000
C          C       0.20320   0.93130   0.29680   0.0000000000
C          C       0.79680   0.93130   0.70320   0.0000000000
C          C       0.20320   0.06870   0.70320   0.0000000000
C          C       0.79680   0.06870   0.29680   0.0000000000
C          C       0.20320   0.29680   0.06870   0.0000000000
C          C       0.79680   0.70320   0.06870   0.0000000000
C          C       0.20320   0.70320   0.93130   0.0000000000
C          C       0.79680   0.29680   0.93130   0.0000000000
C          C       0.29680   0.93130   0.79680   0.0000000000
C          C       0.70320   0.93130   0.20320   0.0000000000
C          C       0.70320   0.06870   0.79680   0.0000000000
C          C       0.29680   0.06870   0.20320   0.0000000000
C          C       0.93130   0.20320   0.70320   0.0000000000
C          C       0.93130   0.79680   0.29680   0.0000000000
C          C       0.06870   0.20320   0.29680   0.0000000000
C          C       0.06870   0.79680   0.70320   0.0000000000
C          C       0.70320   0.79680   0.06870   0.0000000000
C          C       0.29680   0.20320   0.06870   0.0000000000
C          C       0.29680   0.79680   0.93130   0.0000000000
C          C       0.70320   0.20320   0.93130   0.0000000000
C          C       0.06870   0.70320   0.79680   0.0000000000
C          C       0.06870   0.29680   0.20320   0.0000000000
C          C       0.93130   0.29680   0.79680   0.0000000000
C          C       0.93130   0.70320   0.20320   0.0000000000
C          C       0.79680   0.06870   0.70320   0.0000000000
C          C       0.20320   0.06870   0.29680   0.0000000000
C          C       0.79680   0.93130   0.29680   0.0000000000
C          C       0.20320   0.93130   0.70320   0.0000000000
C          C       0.79680   0.70320   0.93130   0.0000000000
C          C       0.20320   0.29680   0.93130   0.0000000000
C          C       0.79680   0.29680   0.06870   0.0000000000
C          C       0.20320   0.70320   0.06870   0.0000000000
C          C       0.70320   0.06870   0.20320   0.0000000000
C          C       0.29680   0.06870   0.79680   0.0000000000
C          C       0.29680   0.93130   0.20320   0.0000000000
C          C       0.70320   0.93130   0.79680   0.0000000000
C          C       0.06870   0.79680   0.29680   0.0000000000
C          C       0.06870   0.20320   0.70320   0.0000000000
C          C       0.93130   0.79680   0.70320   0.0000000000
C          C       0.93130   0.20320   0.29680   0.0000000000
C          C       0.29680   0.70320   0.43130   0.0000000000
C          C       0.70320   0.29680   0.43130   0.0000000000
C          C       0.70320   0.70320   0.56870   0.0000000000
C          C       0.29680   0.29680   0.56870   0.0000000000
C          C       0.20320   0.43130   0.79680   0.0000000000
C          C       0.79680   0.43130   0.20320   0.0000000000
C          C       0.20320   0.56870   0.20320   0.0000000000
C          C       0.79680   0.56870   0.79680   0.0000000000
C          C       0.20320   0.79680   0.56870   0.0000000000
C          C       0.79680   0.20320   0.56870   0.0000000000
C          C       0.20320   0.20320   0.43130   0.0000000000
C          C       0.79680   0.79680   0.43130   0.0000000000
C          C       0.29680   0.43130   0.29680   0.0000000000
C          C       0.70320   0.43130   0.70320   0.0000000000
C          C       0.70320   0.56870   0.29680   0.0000000000
C          C       0.29680   0.56870   0.70320   0.0000000000
C          C       0.70320   0.29680   0.56870   0.0000000000
C          C       0.29680   0.70320   0.56870   0.0000000000
C          C       0.29680   0.29680   0.43130   0.0000000000
C          C       0.70320   0.70320   0.43130   0.0000000000
C          C       0.79680   0.56870   0.20320   0.0000000000
C          C       0.20320   0.56870   0.79680   0.0000000000
C          C       0.79680   0.43130   0.79680   0.0000000000
C          C       0.20320   0.43130   0.20320   0.0000000000
C          C       0.79680   0.20320   0.43130   0.0000000000
C          C       0.20320   0.79680   0.43130   0.0000000000
C          C       0.79680   0.79680   0.56870   0.0000000000
C          C       0.20320   0.20320   0.56870   0.0000000000
C          C       0.70320   0.56870   0.70320   0.0000000000
C          C       0.29680   0.56870   0.29680   0.0000000000
C          C       0.29680   0.43130   0.70320   0.0000000000
C          C       0.70320   0.43130   0.29680   0.0000000000
C          C       0.43130   0.29680   0.70320   0.0000000000
C          C       0.43130   0.70320   0.29680   0.0000000000
C          C       0.56870   0.70320   0.70320   0.0000000000
C          C       0.56870   0.29680   0.29680   0.0000000000
C          C       0.43130   0.20320   0.20320   0.0000000000
C          C       0.43130   0.79680   0.79680   0.0000000000
C          C       0.56870   0.20320   0.79680   0.0000000000
C          C       0.56870   0.79680   0.20320   0.0000000000
C          C       0.56870   0.70320   0.29680   0.0000000000
C          C       0.56870   0.29680   0.70320   0.0000000000
C          C       0.43130   0.29680   0.29680   0.0000000000
C          C       0.43130   0.70320   0.70320   0.0000000000
C          C       0.56870   0.79680   0.79680   0.0000000000
C          C       0.56870   0.20320   0.20320   0.0000000000
C          C       0.43130   0.79680   0.20320   0.0000000000
C          C       0.43130   0.20320   0.79680   0.0000000000
C          C       0.32200   0.17800   0.88700   0.0000000000
C          C       0.67800   0.82200   0.88700   0.0000000000
C          C       0.67800   0.17800   0.11300   0.0000000000
C          C       0.32200   0.82200   0.11300   0.0000000000
C          C       0.88700   0.32200   0.17800   0.0000000000
C          C       0.88700   0.67800   0.82200   0.0000000000
C          C       0.11300   0.67800   0.17800   0.0000000000
C          C       0.11300   0.32200   0.82200   0.0000000000
C          C       0.17800   0.88700   0.32200   0.0000000000
C          C       0.82200   0.88700   0.67800   0.0000000000
C          C       0.17800   0.11300   0.67800   0.0000000000
C          C       0.82200   0.11300   0.32200   0.0000000000
C          C       0.17800   0.32200   0.11300   0.0000000000
C          C       0.82200   0.67800   0.11300   0.0000000000
C          C       0.17800   0.67800   0.88700   0.0000000000
C          C       0.82200   0.32200   0.88700   0.0000000000
C          C       0.32200   0.88700   0.82200   0.0000000000
C          C       0.67800   0.88700   0.17800   0.0000000000
C          C       0.67800   0.11300   0.82200   0.0000000000
C          C       0.32200   0.11300   0.17800   0.0000000000
C          C       0.88700   0.17800   0.67800   0.0000000000
C          C       0.88700   0.82200   0.32200   0.0000000000
C          C       0.11300   0.17800   0.32200   0.0000000000
C          C       0.11300   0.82200   0.67800   0.0000000000
C          C       0.67800   0.82200   0.11300   0.0000000000
C          C       0.32200   0.17800   0.11300   0.0000000000
C          C       0.32200   0.82200   0.88700   0.0000000000
C          C       0.67800   0.17800   0.88700   0.0000000000
C          C       0.11300   0.67800   0.82200   0.0000000000
C          C       0.11300   0.32200   0.17800   0.0000000000
C          C       0.88700   0.32200   0.82200   0.0000000000
C          C       0.88700   0.67800   0.17800   0.0000000000
C          C       0.82200   0.11300   0.67800   0.0000000000
C          C       0.17800   0.11300   0.32200   0.0000000000
C          C       0.82200   0.88700   0.32200   0.0000000000
C          C       0.17800   0.88700   0.67800   0.0000000000
C          C       0.82200   0.67800   0.88700   0.0000000000
C          C       0.17800   0.32200   0.88700   0.0000000000
C          C       0.82200   0.32200   0.11300   0.0000000000
C          C       0.17800   0.67800   0.11300   0.0000000000
C          C       0.67800   0.11300   0.17800   0.0000000000
C          C       0.32200   0.11300   0.82200   0.0000000000
C          C       0.32200   0.88700   0.17800   0.0000000000
C          C       0.67800   0.88700   0.82200   0.0000000000
C          C       0.11300   0.82200   0.32200   0.0000000000
C          C       0.11300   0.17800   0.67800   0.0000000000
C          C       0.88700   0.82200   0.67800   0.0000000000
C          C       0.88700   0.17800   0.32200   0.0000000000
C          C       0.32200   0.67800   0.38700   0.0000000000
C          C       0.67800   0.32200   0.38700   0.0000000000
C          C       0.67800   0.67800   0.61300   0.0000000000
C          C       0.32200   0.32200   0.61300   0.0000000000
C          C       0.17800   0.38700   0.82200   0.0000000000
C          C       0.82200   0.38700   0.17800   0.0000000000
C          C       0.17800   0.61300   0.17800   0.0000000000
C          C       0.82200   0.61300   0.82200   0.0000000000
C          C       0.17800   0.82200   0.61300   0.0000000000
C          C       0.82200   0.17800   0.61300   0.0000000000
C          C       0.17800   0.17800   0.38700   0.0000000000
C          C       0.82200   0.82200   0.38700   0.0000000000
C          C       0.32200   0.38700   0.32200   0.0000000000
C          C       0.67800   0.38700   0.67800   0.0000000000
C          C       0.67800   0.61300   0.32200   0.0000000000
C          C       0.32200   0.61300   0.67800   0.0000000000
C          C       0.67800   0.32200   0.61300   0.0000000000
C          C       0.32200   0.67800   0.61300   0.0000000000
C          C       0.32200   0.32200   0.38700   0.0000000000
C          C       0.67800   0.67800   0.38700   0.0000000000
C          C       0.82200   0.61300   0.17800   0.0000000000
C          C       0.17800   0.61300   0.82200   0.0000000000
C          C       0.82200   0.38700   0.82200   0.0000000000
C          C       0.17800   0.38700   0.17800   0.0000000000
C          C       0.82200   0.17800   0.38700   0.0000000000
C          C       0.17800   0.82200   0.38700   0.0000000000
C          C       0.82200   0.82200   0.61300   0.0000000000
C          C       0.17800   0.17800   0.61300   0.0000000000
C          C       0.67800   0.61300   0.67800   0.0000000000
C          C       0.32200   0.61300   0.32200   0.0000000000
C          C       0.32200   0.38700   0.67800   0.0000000000
C          C       0.67800   0.38700   0.32200   0.0000000000
C          C       0.38700   0.32200   0.67800   0.0000000000
C          C       0.38700   0.67800   0.32200   0.0000000000
C          C       0.61300   0.67800   0.67800   0.0000000000
C          C       0.61300   0.32200   0.32200   0.0000000000
C          C       0.38700   0.17800   0.17800   0.0000000000
C          C       0.38700   0.82200   0.82200   0.0000000000
C          C       0.61300   0.17800   0.82200   0.0000000000
C          C       0.61300   0.82200   0.17800   0.0000000000
C          C       0.61300   0.67800   0.32200   0.0000000000
C          C       0.61300   0.32200   0.67800   0.0000000000
C          C       0.38700   0.32200   0.32200   0.0000000000
C          C       0.38700   0.67800   0.67800   0.0000000000
C          C       0.61300   0.82200   0.82200   0.0000000000
C          C       0.61300   0.17800   0.17800   0.0000000000
C          C       0.38700   0.82200   0.17800   0.0000000000
C          C       0.38700   0.17800   0.82200   0.0000000000
C          C       0.36550   0.19940   0.86550   0.0000000000
C          C       0.63450   0.80060   0.86550   0.0000000000
C          C       0.63450   0.19940   0.13450   0.0000000000
C          C       0.36550   0.80060   0.13450   0.0000000000
C          C       0.86550   0.36550   0.19940   0.0000000000
C          C       0.86550   0.63450   0.80060   0.0000000000
C          C       0.13450   0.63450   0.19940   0.0000000000
C          C       0.13450   0.36550   0.80060   0.0000000000
C          C       0.19940   0.86550   0.36550   0.0000000000
C          C       0.80060   0.86550   0.63450   0.0000000000
C          C       0.19940   0.13450   0.63450   0.0000000000
C          C       0.80060   0.13450   0.36550   0.0000000000
C          C       0.19940   0.36550   0.13450   0.0000000000
C          C       0.80060   0.63450   0.13450   0.0000000000
C          C       0.19940   0.63450   0.86550   0.0000000000
C          C       0.80060   0.36550   0.86550   0.0000000000
C          C       0.36550   0.86550   0.80060   0.0000000000
C          C       0.63450   0.86550   0.19940   0.0000000000
C          C       0.63450   0.13450   0.80060   0.0000000000
C          C       0.36550   0.13450   0.19940   0.0000000000
C          C       0.86550   0.19940   0.63450   0.0000000000
C          C       0.86550   0.80060   0.36550   0.0000000000
C          C       0.13450   0.19940   0.36550   0.0000000000
C          C       0.13450   0.80060   0.63450   0.0000000000
C          C       0.63450   0.80060   0.13450   0.0000000000
C          C       0.36550   0.19940   0.13450   0.0000000000
C          C       0.36550   0.80060   0.86550   0.0000000000
C          C       0.63450   0.19940   0.86550   0.0000000000
C          C       0.13450   0.63450   0.80060   0.0000000000
C          C       0.13450   0.36550   0.19940   0.0000000000
C          C       0.86550   0.36550   0.80060   0.0000000000
C          C       0.86550   0.63450   0.19940   0.0000000000
C          C       0.80060   0.13450   0.63450   0.0000000000
C          C       0.19940   0.13450   0.36550   0.0000000000
C          C       0.80060   0.86550   0.36550   0.0000000000
C          C       0.19940   0.86550   0.63450   0.0000000000
C          C       0.80060   0.63450   0.86550   0.0000000000
C          C       0.19940   0.36550   0.86550   0.0000000000
C          C       0.80060   0.36550   0.13450   0.0000000000
C          C       0.19940   0.63450   0.13450   0.0000000000
C          C       0.63450   0.13450   0.19940   0.0000000000
C          C       0.36550   0.13450   0.80060   0.0000000000
C          C       0.36550   0.86550   0.19940   0.0000000000
C          C       0.63450   0.86550   0.80060   0.0000000000
C          C       0.13450   0.80060   0.36550   0.0000000000
C          C       0.13450   0.19940   0.63450   0.0000000000
C          C       0.86550   0.80060   0.63450   0.0000000000
C          C       0.86550   0.19940   0.36550   0.0000000000
C          C       0.36550   0.69940   0.36550   0.0000000000
C          C       0.63450   0.30060   0.36550   0.0000000000
C          C       0.63450   0.69940   0.63450   0.0000000000
C          C       0.36550   0.30060   0.63450   0.0000000000
C          C       0.86550   0.86550   0.69940   0.0000000000
C          C       0.86550   0.13450   0.30060   0.0000000000
C          C       0.13450   0.13450   0.69940   0.0000000000
C          C       0.13450   0.86550   0.30060   0.0000000000
C          C       0.36550   0.36550   0.30060   0.0000000000
C          C       0.63450   0.36550   0.69940   0.0000000000
C          C       0.63450   0.63450   0.30060   0.0000000000
C          C       0.36550   0.63450   0.69940   0.0000000000
C          C       0.86550   0.69940   0.13450   0.0000000000
C          C       0.86550   0.30060   0.86550   0.0000000000
C          C       0.13450   0.69940   0.86550   0.0000000000
C          C       0.13450   0.30060   0.13450   0.0000000000
C          C       0.63450   0.30060   0.63450   0.0000000000
C          C       0.36550   0.69940   0.63450   0.0000000000
C          C       0.36550   0.30060   0.36550   0.0000000000
C          C       0.63450   0.69940   0.36550   0.0000000000
C          C       0.13450   0.13450   0.30060   0.0000000000
C          C       0.13450   0.86550   0.69940   0.0000000000
C          C       0.86550   0.86550   0.30060   0.0000000000
C          C       0.86550   0.13450   0.69940   0.0000000000
C          C       0.63450   0.63450   0.69940   0.0000000000
C          C       0.36550   0.63450   0.30060   0.0000000000
C          C       0.36550   0.36550   0.69940   0.0000000000
C          C       0.63450   0.36550   0.30060   0.0000000000
C          C       0.13450   0.30060   0.86550   0.0000000000
C          C       0.13450   0.69940   0.13450   0.0000000000
C          C       0.86550   0.30060   0.13450   0.0000000000
C          C       0.86550   0.69940   0.86550   0.0000000000
C          C       0.69940   0.86550   0.86550   0.0000000000
C          C       0.30060   0.86550   0.13450   0.0000000000
C          C       0.69940   0.13450   0.13450   0.0000000000
C          C       0.30060   0.13450   0.86550   0.0000000000
C          C       0.69940   0.36550   0.63450   0.0000000000
C          C       0.30060   0.63450   0.63450   0.0000000000
C          C       0.69940   0.63450   0.36550   0.0000000000
C          C       0.30060   0.36550   0.36550   0.0000000000
C          C       0.30060   0.13450   0.13450   0.0000000000
C          C       0.69940   0.13450   0.86550   0.0000000000
C          C       0.30060   0.86550   0.86550   0.0000000000
C          C       0.69940   0.86550   0.13450   0.0000000000
C          C       0.30060   0.63450   0.36550   0.0000000000
C          C       0.69940   0.36550   0.36550   0.0000000000
C          C       0.30060   0.36550   0.63450   0.0000000000
C          C       0.69940   0.63450   0.63450   0.0000000000
H          H       0.38020   0.22800   0.88020   0.0000000000
H          H       0.61980   0.77200   0.88020   0.0000000000
H          H       0.61980   0.22800   0.11980   0.0000000000
H          H       0.38020   0.77200   0.11980   0.0000000000
H          H       0.88020   0.38020   0.22800   0.0000000000
H          H       0.88020   0.61980   0.77200   0.0000000000
H          H       0.11980   0.61980   0.22800   0.0000000000
H          H       0.11980   0.38020   0.77200   0.0000000000
H          H       0.22800   0.88020   0.38020   0.0000000000
H          H       0.77200   0.88020   0.61980   0.0000000000
H          H       0.22800   0.11980   0.61980   0.0000000000
H          H       0.77200   0.11980   0.38020   0.0000000000
H          H       0.22800   0.38020   0.11980   0.0000000000
H          H       0.77200   0.61980   0.11980   0.0000000000
H          H       0.22800   0.61980   0.88020   0.0000000000
H          H       0.77200   0.38020   0.88020   0.0000000000
H          H       0.38020   0.88020   0.77200   0.0000000000
H          H       0.61980   0.88020   0.22800   0.0000000000
H          H       0.61980   0.11980   0.77200   0.0000000000
H          H       0.38020   0.11980   0.22800   0.0000000000
H          H       0.88020   0.22800   0.61980   0.0000000000
H          H       0.88020   0.77200   0.38020   0.0000000000
H          H       0.11980   0.22800   0.38020   0.0000000000
H          H       0.11980   0.77200   0.61980   0.0000000000
H          H       0.61980   0.77200   0.11980   0.0000000000
H          H       0.38020   0.22800   0.11980   0.0000000000
H          H       0.38020   0.77200   0.88020   0.0000000000
H          H       0.61980   0.22800   0.88020   0.0000000000
H          H       0.11980   0.61980   0.77200   0.0000000000
H          H       0.11980   0.38020   0.22800   0.0000000000
H          H       0.88020   0.38020   0.77200   0.0000000000
H          H       0.88020   0.61980   0.22800   0.0000000000
H          H       0.77200   0.11980   0.61980   0.0000000000
H          H       0.22800   0.11980   0.38020   0.0000000000
H          H       0.77200   0.88020   0.38020   0.0000000000
H          H       0.22800   0.88020   0.61980   0.0000000000
H          H       0.77200   0.61980   0.88020   0.0000000000
H          H       0.22800   0.38020   0.88020   0.0000000000
H          H       0.77200   0.38020   0.11980   0.0000000000
H          H       0.22800   0.61980   0.11980   0.0000000000
H          H       0.61980   0.11980   0.22800   0.0000000000
H          H       0.38020   0.11980   0.77200   0.0000000000
H          H       0.38020   0.88020   0.22800   0.0000000000
H          H       0.61980   0.88020   0.77200   0.0000000000
H          H       0.11980   0.77200   0.38020   0.0000000000
H          H       0.11980   0.22800   0.61980   0.0000000000
H          H       0.88020   0.77200   0.61980   0.0000000000
H          H       0.88020   0.22800   0.38020   0.0000000000
H          H       0.38020   0.72800   0.38020   0.0000000000
H          H       0.61980   0.27200   0.38020   0.0000000000
H          H       0.61980   0.72800   0.61980   0.0000000000
H          H       0.38020   0.27200   0.61980   0.0000000000
H          H       0.88020   0.88020   0.72800   0.0000000000
H          H       0.88020   0.11980   0.27200   0.0000000000
H          H       0.11980   0.11980   0.72800   0.0000000000
H          H       0.11980   0.88020   0.27200   0.0000000000
H          H       0.38020   0.38020   0.27200   0.0000000000
H          H       0.61980   0.38020   0.72800   0.0000000000
H          H       0.61980   0.61980   0.27200   0.0000000000
H          H       0.38020   0.61980   0.72800   0.0000000000
H          H       0.88020   0.72800   0.11980   0.0000000000
H          H       0.88020   0.27200   0.88020   0.0000000000
H          H       0.11980   0.72800   0.88020   0.0000000000
H          H       0.11980   0.27200   0.11980   0.0000000000
H          H       0.61980   0.27200   0.61980   0.0000000000
H          H       0.38020   0.72800   0.61980   0.0000000000
H          H       0.38020   0.27200   0.38020   0.0000000000
H          H       0.61980   0.72800   0.38020   0.0000000000
H          H       0.11980   0.11980   0.27200   0.0000000000
H          H       0.11980   0.88020   0.72800   0.0000000000
H          H       0.88020   0.88020   0.27200   0.0000000000
H          H       0.88020   0.11980   0.72800   0.0000000000
H          H       0.61980   0.61980   0.72800   0.0000000000
H          H       0.38020   0.61980   0.27200   0.0000000000
H          H       0.38020   0.38020   0.72800   0.0000000000
H          H       0.61980   0.38020   0.27200   0.0000000000
H          H       0.11980   0.27200   0.88020   0.0000000000
H          H       0.11980   0.72800   0.11980   0.0000000000
H          H       0.88020   0.27200   0.11980   0.0000000000
H          H       0.88020   0.72800   0.88020   0.0000000000
H          H       0.72800   0.88020   0.88020   0.0000000000
H          H       0.27200   0.88020   0.11980   0.0000000000
H          H       0.72800   0.11980   0.11980   0.0000000000
H          H       0.27200   0.11980   0.88020   0.0000000000
H          H       0.72800   0.38020   0.61980   0.0000000000
H          H       0.27200   0.61980   0.61980   0.0000000000
H          H       0.72800   0.61980   0.38020   0.0000000000
H          H       0.27200   0.38020   0.38020   0.0000000000
H          H       0.27200   0.11980   0.11980   0.0000000000
H          H       0.72800   0.11980   0.88020   0.0000000000
H          H       0.27200   0.88020   0.88020   0.0000000000
H          H       0.72800   0.88020   0.11980   0.0000000000
H          H       0.27200   0.61980   0.38020   0.0000000000
H          H       0.72800   0.38020   0.38020   0.0000000000
H          H       0.27200   0.38020   0.61980   0.0000000000
H          H       0.72800   0.61980   0.61980   0.0000000000
