data_image0
_cell_length_a       34.2807
_cell_length_b       34.2807
_cell_length_c       34.2807
_cell_angle_alpha    90
_cell_angle_beta     90
_cell_angle_gamma    90

_symmetry_space_group_name_H-M    "P 1"
_symmetry_int_tables_number       1

loop_
  _symmetry_equiv_pos_as_xyz
  'x, y, z'

loop_
  _atom_site_label
  _atom_site_occupancy
  _atom_site_fract_x
  _atom_site_fract_y
  _atom_site_fract_z
  _atom_site_thermal_displace_type
  _atom_site_B_iso_or_equiv
  _atom_site_type_symbol
  Zn1      1.0000 0.28277  0.21723  0.21723  Biso   1.000  Zn
  Zn2      1.0000 0.71723  0.78277  0.21723  Biso   1.000  Zn
  Zn3      1.0000 0.71723  0.21723  0.78277  Biso   1.000  Zn
  Zn4      1.0000 0.28277  0.78277  0.78277  Biso   1.000  Zn
  Zn5      1.0000 0.21723  0.28277  0.21723  Biso   1.000  Zn
  Zn6      1.0000 0.21723  0.71723  0.78277  Biso   1.000  Zn
  Zn7      1.0000 0.78277  0.71723  0.21723  Biso   1.000  Zn
  Zn8      1.0000 0.78277  0.28277  0.78277  Biso   1.000  Zn
  Zn9      1.0000 0.21723  0.21723  0.28277  Biso   1.000  Zn
  Zn10     1.0000 0.78277  0.21723  0.71723  Biso   1.000  Zn
  Zn11     1.0000 0.21723  0.78277  0.71723  Biso   1.000  Zn
  Zn12     1.0000 0.78277  0.78277  0.28277  Biso   1.000  Zn
  Zn13     1.0000 0.21723  0.28277  0.78277  Biso   1.000  Zn
  Zn14     1.0000 0.78277  0.71723  0.78277  Biso   1.000  Zn
  Zn15     1.0000 0.21723  0.71723  0.21723  Biso   1.000  Zn
  Zn16     1.0000 0.78277  0.28277  0.21723  Biso   1.000  Zn
  Zn17     1.0000 0.28277  0.21723  0.78277  Biso   1.000  Zn
  Zn18     1.0000 0.71723  0.21723  0.21723  Biso   1.000  Zn
  Zn19     1.0000 0.71723  0.78277  0.78277  Biso   1.000  Zn
  Zn20     1.0000 0.28277  0.78277  0.21723  Biso   1.000  Zn
  Zn21     1.0000 0.21723  0.21723  0.71723  Biso   1.000  Zn
  Zn22     1.0000 0.21723  0.78277  0.28277  Biso   1.000  Zn
  Zn23     1.0000 0.78277  0.21723  0.28277  Biso   1.000  Zn
  Zn24     1.0000 0.78277  0.78277  0.71723  Biso   1.000  Zn
  Zn25     1.0000 0.28277  0.71723  0.71723  Biso   1.000  Zn
  Zn26     1.0000 0.71723  0.28277  0.71723  Biso   1.000  Zn
  Zn27     1.0000 0.71723  0.71723  0.28277  Biso   1.000  Zn
  Zn28     1.0000 0.28277  0.28277  0.28277  Biso   1.000  Zn
  Zn29     1.0000 0.28277  0.71723  0.28277  Biso   1.000  Zn
  Zn30     1.0000 0.71723  0.71723  0.71723  Biso   1.000  Zn
  Zn31     1.0000 0.71723  0.28277  0.28277  Biso   1.000  Zn
  Zn32     1.0000 0.28277  0.28277  0.71723  Biso   1.000  Zn
  O1       1.0000 0.25000  0.25000  0.25000  Biso   1.000  O
  O2       1.0000 0.75000  0.75000  0.25000  Biso   1.000  O
  O3       1.0000 0.75000  0.25000  0.75000  Biso   1.000  O
  O4       1.0000 0.25000  0.75000  0.75000  Biso   1.000  O
  O5       1.0000 0.25000  0.25000  0.75000  Biso   1.000  O
  O6       1.0000 0.75000  0.75000  0.75000  Biso   1.000  O
  O7       1.0000 0.25000  0.75000  0.25000  Biso   1.000  O
  O8       1.0000 0.75000  0.25000  0.25000  Biso   1.000  O
  O9       1.0000 0.27352  0.22648  0.16179  Biso   1.000  O
  O10      1.0000 0.72648  0.77352  0.16179  Biso   1.000  O
  O11      1.0000 0.72648  0.22648  0.83821  Biso   1.000  O
  O12      1.0000 0.27352  0.77352  0.83821  Biso   1.000  O
  O13      1.0000 0.16179  0.27352  0.22648  Biso   1.000  O
  O14      1.0000 0.16179  0.72648  0.77352  Biso   1.000  O
  O15      1.0000 0.83821  0.72648  0.22648  Biso   1.000  O
  O16      1.0000 0.83821  0.27352  0.77352  Biso   1.000  O
  O17      1.0000 0.22648  0.16179  0.27352  Biso   1.000  O
  O18      1.0000 0.77352  0.16179  0.72648  Biso   1.000  O
  O19      1.0000 0.22648  0.83821  0.72648  Biso   1.000  O
  O20      1.0000 0.77352  0.83821  0.27352  Biso   1.000  O
  O21      1.0000 0.22648  0.27352  0.83821  Biso   1.000  O
  O22      1.0000 0.77352  0.72648  0.83821  Biso   1.000  O
  O23      1.0000 0.22648  0.72648  0.16179  Biso   1.000  O
  O24      1.0000 0.77352  0.27352  0.16179  Biso   1.000  O
  O25      1.0000 0.27352  0.16179  0.77352  Biso   1.000  O
  O26      1.0000 0.72648  0.16179  0.22648  Biso   1.000  O
  O27      1.0000 0.72648  0.83821  0.77352  Biso   1.000  O
  O28      1.0000 0.27352  0.83821  0.22648  Biso   1.000  O
  O29      1.0000 0.16179  0.22648  0.72648  Biso   1.000  O
  O30      1.0000 0.16179  0.77352  0.27352  Biso   1.000  O
  O31      1.0000 0.83821  0.22648  0.27352  Biso   1.000  O
  O32      1.0000 0.83821  0.77352  0.72648  Biso   1.000  O
  O33      1.0000 0.72648  0.77352  0.83821  Biso   1.000  O
  O34      1.0000 0.27352  0.22648  0.83821  Biso   1.000  O
  O35      1.0000 0.27352  0.77352  0.16179  Biso   1.000  O
  O36      1.0000 0.72648  0.22648  0.16179  Biso   1.000  O
  O37      1.0000 0.83821  0.72648  0.77352  Biso   1.000  O
  O38      1.0000 0.83821  0.27352  0.22648  Biso   1.000  O
  O39      1.0000 0.16179  0.27352  0.77352  Biso   1.000  O
  O40      1.0000 0.16179  0.72648  0.22648  Biso   1.000  O
  O41      1.0000 0.77352  0.83821  0.72648  Biso   1.000  O
  O42      1.0000 0.22648  0.83821  0.27352  Biso   1.000  O
  O43      1.0000 0.77352  0.16179  0.27352  Biso   1.000  O
  O44      1.0000 0.22648  0.16179  0.72648  Biso   1.000  O
  O45      1.0000 0.77352  0.72648  0.16179  Biso   1.000  O
  O46      1.0000 0.22648  0.27352  0.16179  Biso   1.000  O
  O47      1.0000 0.77352  0.27352  0.83821  Biso   1.000  O
  O48      1.0000 0.22648  0.72648  0.83821  Biso   1.000  O
  O49      1.0000 0.72648  0.83821  0.22648  Biso   1.000  O
  O50      1.0000 0.27352  0.83821  0.77352  Biso   1.000  O
  O51      1.0000 0.27352  0.16179  0.22648  Biso   1.000  O
  O52      1.0000 0.72648  0.16179  0.77352  Biso   1.000  O
  O53      1.0000 0.83821  0.77352  0.27352  Biso   1.000  O
  O54      1.0000 0.83821  0.22648  0.72648  Biso   1.000  O
  O55      1.0000 0.16179  0.77352  0.72648  Biso   1.000  O
  O56      1.0000 0.16179  0.22648  0.27352  Biso   1.000  O
  O57      1.0000 0.27352  0.72648  0.66179  Biso   1.000  O
  O58      1.0000 0.72648  0.27352  0.66179  Biso   1.000  O
  O59      1.0000 0.72648  0.72648  0.33821  Biso   1.000  O
  O60      1.0000 0.27352  0.27352  0.33821  Biso   1.000  O
  O61      1.0000 0.22648  0.66179  0.77352  Biso   1.000  O
  O62      1.0000 0.77352  0.66179  0.22648  Biso   1.000  O
  O63      1.0000 0.22648  0.33821  0.22648  Biso   1.000  O
  O64      1.0000 0.77352  0.33821  0.77352  Biso   1.000  O
  O65      1.0000 0.22648  0.77352  0.33821  Biso   1.000  O
  O66      1.0000 0.77352  0.22648  0.33821  Biso   1.000  O
  O67      1.0000 0.22648  0.22648  0.66179  Biso   1.000  O
  O68      1.0000 0.77352  0.77352  0.66179  Biso   1.000  O
  O69      1.0000 0.27352  0.66179  0.27352  Biso   1.000  O
  O70      1.0000 0.72648  0.66179  0.72648  Biso   1.000  O
  O71      1.0000 0.72648  0.33821  0.27352  Biso   1.000  O
  O72      1.0000 0.27352  0.33821  0.72648  Biso   1.000  O
  O73      1.0000 0.72648  0.27352  0.33821  Biso   1.000  O
  O74      1.0000 0.27352  0.72648  0.33821  Biso   1.000  O
  O75      1.0000 0.27352  0.27352  0.66179  Biso   1.000  O
  O76      1.0000 0.72648  0.72648  0.66179  Biso   1.000  O
  O77      1.0000 0.77352  0.33821  0.22648  Biso   1.000  O
  O78      1.0000 0.22648  0.33821  0.77352  Biso   1.000  O
  O79      1.0000 0.77352  0.66179  0.77352  Biso   1.000  O
  O80      1.0000 0.22648  0.66179  0.22648  Biso   1.000  O
  O81      1.0000 0.77352  0.22648  0.66179  Biso   1.000  O
  O82      1.0000 0.22648  0.77352  0.66179  Biso   1.000  O
  O83      1.0000 0.77352  0.77352  0.33821  Biso   1.000  O
  O84      1.0000 0.22648  0.22648  0.33821  Biso   1.000  O
  O85      1.0000 0.72648  0.33821  0.72648  Biso   1.000  O
  O86      1.0000 0.27352  0.33821  0.27352  Biso   1.000  O
  O87      1.0000 0.27352  0.66179  0.72648  Biso   1.000  O
  O88      1.0000 0.72648  0.66179  0.27352  Biso   1.000  O
  O89      1.0000 0.66179  0.27352  0.72648  Biso   1.000  O
  O90      1.0000 0.66179  0.72648  0.27352  Biso   1.000  O
  O91      1.0000 0.33821  0.72648  0.72648  Biso   1.000  O
  O92      1.0000 0.33821  0.27352  0.27352  Biso   1.000  O
  O93      1.0000 0.66179  0.22648  0.22648  Biso   1.000  O
  O94      1.0000 0.66179  0.77352  0.77352  Biso   1.000  O
  O95      1.0000 0.33821  0.22648  0.77352  Biso   1.000  O
  O96      1.0000 0.33821  0.77352  0.22648  Biso   1.000  O
  O97      1.0000 0.33821  0.72648  0.27352  Biso   1.000  O
  O98      1.0000 0.33821  0.27352  0.72648  Biso   1.000  O
  O99      1.0000 0.66179  0.27352  0.27352  Biso   1.000  O
  O100     1.0000 0.66179  0.72648  0.72648  Biso   1.000  O
  O101     1.0000 0.33821  0.77352  0.77352  Biso   1.000  O
  O102     1.0000 0.33821  0.22648  0.22648  Biso   1.000  O
  O103     1.0000 0.66179  0.77352  0.22648  Biso   1.000  O
  O104     1.0000 0.66179  0.22648  0.77352  Biso   1.000  O
  C1       1.0000 0.25000  0.25000  0.14483  Biso   1.000  C
  C2       1.0000 0.75000  0.75000  0.14483  Biso   1.000  C
  C3       1.0000 0.75000  0.25000  0.85517  Biso   1.000  C
  C4       1.0000 0.25000  0.75000  0.85517  Biso   1.000  C
  C5       1.0000 0.14483  0.25000  0.25000  Biso   1.000  C
  C6       1.0000 0.14483  0.75000  0.75000  Biso   1.000  C
  C7       1.0000 0.85517  0.75000  0.25000  Biso   1.000  C
  C8       1.0000 0.85517  0.25000  0.75000  Biso   1.000  C
  C9       1.0000 0.25000  0.14483  0.25000  Biso   1.000  C
  C10      1.0000 0.75000  0.14483  0.75000  Biso   1.000  C
  C11      1.0000 0.25000  0.85517  0.75000  Biso   1.000  C
  C12      1.0000 0.75000  0.85517  0.25000  Biso   1.000  C
  C13      1.0000 0.25000  0.25000  0.85517  Biso   1.000  C
  C14      1.0000 0.75000  0.75000  0.85517  Biso   1.000  C
  C15      1.0000 0.25000  0.75000  0.14483  Biso   1.000  C
  C16      1.0000 0.75000  0.25000  0.14483  Biso   1.000  C
  C17      1.0000 0.25000  0.14483  0.75000  Biso   1.000  C
  C18      1.0000 0.75000  0.14483  0.25000  Biso   1.000  C
  C19      1.0000 0.75000  0.85517  0.75000  Biso   1.000  C
  C20      1.0000 0.25000  0.85517  0.25000  Biso   1.000  C
  C21      1.0000 0.14483  0.25000  0.75000  Biso   1.000  C
  C22      1.0000 0.14483  0.75000  0.25000  Biso   1.000  C
  C23      1.0000 0.85517  0.25000  0.25000  Biso   1.000  C
  C24      1.0000 0.85517  0.75000  0.75000  Biso   1.000  C
  C25      1.0000 0.25000  0.75000  0.64483  Biso   1.000  C
  C26      1.0000 0.75000  0.25000  0.64483  Biso   1.000  C
  C27      1.0000 0.75000  0.75000  0.35517  Biso   1.000  C
  C28      1.0000 0.25000  0.25000  0.35517  Biso   1.000  C
  C29      1.0000 0.25000  0.64483  0.75000  Biso   1.000  C
  C30      1.0000 0.75000  0.64483  0.25000  Biso   1.000  C
  C31      1.0000 0.25000  0.35517  0.25000  Biso   1.000  C
  C32      1.0000 0.75000  0.35517  0.75000  Biso   1.000  C
  C33      1.0000 0.25000  0.75000  0.35517  Biso   1.000  C
  C34      1.0000 0.75000  0.25000  0.35517  Biso   1.000  C
  C35      1.0000 0.25000  0.25000  0.64483  Biso   1.000  C
  C36      1.0000 0.75000  0.75000  0.64483  Biso   1.000  C
  C37      1.0000 0.25000  0.64483  0.25000  Biso   1.000  C
  C38      1.0000 0.75000  0.64483  0.75000  Biso   1.000  C
  C39      1.0000 0.75000  0.35517  0.25000  Biso   1.000  C
  C40      1.0000 0.25000  0.35517  0.75000  Biso   1.000  C
  C41      1.0000 0.64483  0.25000  0.75000  Biso   1.000  C
  C42      1.0000 0.64483  0.75000  0.25000  Biso   1.000  C
  C43      1.0000 0.35517  0.75000  0.75000  Biso   1.000  C
  C44      1.0000 0.35517  0.25000  0.25000  Biso   1.000  C
  C45      1.0000 0.64483  0.25000  0.25000  Biso   1.000  C
  C46      1.0000 0.64483  0.75000  0.75000  Biso   1.000  C
  C47      1.0000 0.35517  0.25000  0.75000  Biso   1.000  C
  C48      1.0000 0.35517  0.75000  0.25000  Biso   1.000  C
  C49      1.0000 0.25000  0.25000  0.10278  Biso   1.000  C
  C50      1.0000 0.75000  0.75000  0.10278  Biso   1.000  C
  C51      1.0000 0.75000  0.25000  0.89722  Biso   1.000  C
  C52      1.0000 0.25000  0.75000  0.89722  Biso   1.000  C
  C53      1.0000 0.10278  0.25000  0.25000  Biso   1.000  C
  C54      1.0000 0.10278  0.75000  0.75000  Biso   1.000  C
  C55      1.0000 0.89722  0.75000  0.25000  Biso   1.000  C
  C56      1.0000 0.89722  0.25000  0.75000  Biso   1.000  C
  C57      1.0000 0.25000  0.10278  0.25000  Biso   1.000  C
  C58      1.0000 0.75000  0.10278  0.75000  Biso   1.000  C
  C59      1.0000 0.25000  0.89722  0.75000  Biso   1.000  C
  C60      1.0000 0.75000  0.89722  0.25000  Biso   1.000  C
  C61      1.0000 0.25000  0.25000  0.89722  Biso   1.000  C
  C62      1.0000 0.75000  0.75000  0.89722  Biso   1.000  C
  C63      1.0000 0.25000  0.75000  0.10278  Biso   1.000  C
  C64      1.0000 0.75000  0.25000  0.10278  Biso   1.000  C
  C65      1.0000 0.25000  0.10278  0.75000  Biso   1.000  C
  C66      1.0000 0.75000  0.10278  0.25000  Biso   1.000  C
  C67      1.0000 0.75000  0.89722  0.75000  Biso   1.000  C
  C68      1.0000 0.25000  0.89722  0.25000  Biso   1.000  C
  C69      1.0000 0.10278  0.25000  0.75000  Biso   1.000  C
  C70      1.0000 0.10278  0.75000  0.25000  Biso   1.000  C
  C71      1.0000 0.89722  0.25000  0.25000  Biso   1.000  C
  C72      1.0000 0.89722  0.75000  0.75000  Biso   1.000  C
  C73      1.0000 0.25000  0.75000  0.60278  Biso   1.000  C
  C74      1.0000 0.75000  0.25000  0.60278  Biso   1.000  C
  C75      1.0000 0.75000  0.75000  0.39722  Biso   1.000  C
  C76      1.0000 0.25000  0.25000  0.39722  Biso   1.000  C
  C77      1.0000 0.25000  0.60278  0.75000  Biso   1.000  C
  C78      1.0000 0.75000  0.60278  0.25000  Biso   1.000  C
  C79      1.0000 0.25000  0.39722  0.25000  Biso   1.000  C
  C80      1.0000 0.75000  0.39722  0.75000  Biso   1.000  C
  C81      1.0000 0.25000  0.75000  0.39722  Biso   1.000  C
  C82      1.0000 0.75000  0.25000  0.39722  Biso   1.000  C
  C83      1.0000 0.25000  0.25000  0.60278  Biso   1.000  C
  C84      1.0000 0.75000  0.75000  0.60278  Biso   1.000  C
  C85      1.0000 0.25000  0.60278  0.25000  Biso   1.000  C
  C86      1.0000 0.75000  0.60278  0.75000  Biso   1.000  C
  C87      1.0000 0.75000  0.39722  0.25000  Biso   1.000  C
  C88      1.0000 0.25000  0.39722  0.75000  Biso   1.000  C
  C89      1.0000 0.60278  0.25000  0.75000  Biso   1.000  C
  C90      1.0000 0.60278  0.75000  0.25000  Biso   1.000  C
  C91      1.0000 0.39722  0.75000  0.75000  Biso   1.000  C
  C92      1.0000 0.39722  0.25000  0.25000  Biso   1.000  C
  C93      1.0000 0.60278  0.25000  0.25000  Biso   1.000  C
  C94      1.0000 0.60278  0.75000  0.75000  Biso   1.000  C
  C95      1.0000 0.39722  0.25000  0.75000  Biso   1.000  C
  C96      1.0000 0.39722  0.75000  0.25000  Biso   1.000  C
  C97      1.0000 0.27474  0.22526  0.08221  Biso   1.000  C
  C98      1.0000 0.72526  0.77474  0.08221  Biso   1.000  C
  C99      1.0000 0.72526  0.22526  0.91779  Biso   1.000  C
  C100     1.0000 0.27474  0.77474  0.91779  Biso   1.000  C
  C101     1.0000 0.08221  0.27474  0.22526  Biso   1.000  C
  C102     1.0000 0.08221  0.72526  0.77474  Biso   1.000  C
  C103     1.0000 0.91779  0.72526  0.22526  Biso   1.000  C
  C104     1.0000 0.91779  0.27474  0.77474  Biso   1.000  C
  C105     1.0000 0.22526  0.08221  0.27474  Biso   1.000  C
  C106     1.0000 0.77474  0.08221  0.72526  Biso   1.000  C
  C107     1.0000 0.22526  0.91779  0.72526  Biso   1.000  C
  C108     1.0000 0.77474  0.91779  0.27474  Biso   1.000  C
  C109     1.0000 0.22526  0.27474  0.91779  Biso   1.000  C
  C110     1.0000 0.77474  0.72526  0.91779  Biso   1.000  C
  C111     1.0000 0.22526  0.72526  0.08221  Biso   1.000  C
  C112     1.0000 0.77474  0.27474  0.08221  Biso   1.000  C
  C113     1.0000 0.27474  0.08221  0.77474  Biso   1.000  C
  C114     1.0000 0.72526  0.08221  0.22526  Biso   1.000  C
  C115     1.0000 0.72526  0.91779  0.77474  Biso   1.000  C
  C116     1.0000 0.27474  0.91779  0.22526  Biso   1.000  C
  C117     1.0000 0.08221  0.22526  0.72526  Biso   1.000  C
  C118     1.0000 0.08221  0.77474  0.27474  Biso   1.000  C
  C119     1.0000 0.91779  0.22526  0.27474  Biso   1.000  C
  C120     1.0000 0.91779  0.77474  0.72526  Biso   1.000  C
  C121     1.0000 0.72526  0.77474  0.91779  Biso   1.000  C
  C122     1.0000 0.27474  0.22526  0.91779  Biso   1.000  C
  C123     1.0000 0.27474  0.77474  0.08221  Biso   1.000  C
  C124     1.0000 0.72526  0.22526  0.08221  Biso   1.000  C
  C125     1.0000 0.91779  0.72526  0.77474  Biso   1.000  C
  C126     1.0000 0.91779  0.27474  0.22526  Biso   1.000  C
  C127     1.0000 0.08221  0.27474  0.77474  Biso   1.000  C
  C128     1.0000 0.08221  0.72526  0.22526  Biso   1.000  C
  C129     1.0000 0.77474  0.91779  0.72526  Biso   1.000  C
  C130     1.0000 0.22526  0.91779  0.27474  Biso   1.000  C
  C131     1.0000 0.77474  0.08221  0.27474  Biso   1.000  C
  C132     1.0000 0.22526  0.08221  0.72526  Biso   1.000  C
  C133     1.0000 0.77474  0.72526  0.08221  Biso   1.000  C
  C134     1.0000 0.22526  0.27474  0.08221  Biso   1.000  C
  C135     1.0000 0.77474  0.27474  0.91779  Biso   1.000  C
  C136     1.0000 0.22526  0.72526  0.91779  Biso   1.000  C
  C137     1.0000 0.72526  0.91779  0.22526  Biso   1.000  C
  C138     1.0000 0.27474  0.91779  0.77474  Biso   1.000  C
  C139     1.0000 0.27474  0.08221  0.22526  Biso   1.000  C
  C140     1.0000 0.72526  0.08221  0.77474  Biso   1.000  C
  C141     1.0000 0.91779  0.77474  0.27474  Biso   1.000  C
  C142     1.0000 0.91779  0.22526  0.72526  Biso   1.000  C
  C143     1.0000 0.08221  0.77474  0.72526  Biso   1.000  C
  C144     1.0000 0.08221  0.22526  0.27474  Biso   1.000  C
  C145     1.0000 0.27474  0.72526  0.58221  Biso   1.000  C
  C146     1.0000 0.72526  0.27474  0.58221  Biso   1.000  C
  C147     1.0000 0.72526  0.72526  0.41779  Biso   1.000  C
  C148     1.0000 0.27474  0.27474  0.41779  Biso   1.000  C
  C149     1.0000 0.22526  0.58221  0.77474  Biso   1.000  C
  C150     1.0000 0.77474  0.58221  0.22526  Biso   1.000  C
  C151     1.0000 0.22526  0.41779  0.22526  Biso   1.000  C
  C152     1.0000 0.77474  0.41779  0.77474  Biso   1.000  C
  C153     1.0000 0.22526  0.77474  0.41779  Biso   1.000  C
  C154     1.0000 0.77474  0.22526  0.41779  Biso   1.000  C
  C155     1.0000 0.22526  0.22526  0.58221  Biso   1.000  C
  C156     1.0000 0.77474  0.77474  0.58221  Biso   1.000  C
  C157     1.0000 0.27474  0.58221  0.27474  Biso   1.000  C
  C158     1.0000 0.72526  0.58221  0.72526  Biso   1.000  C
  C159     1.0000 0.72526  0.41779  0.27474  Biso   1.000  C
  C160     1.0000 0.27474  0.41779  0.72526  Biso   1.000  C
  C161     1.0000 0.72526  0.27474  0.41779  Biso   1.000  C
  C162     1.0000 0.27474  0.72526  0.41779  Biso   1.000  C
  C163     1.0000 0.27474  0.27474  0.58221  Biso   1.000  C
  C164     1.0000 0.72526  0.72526  0.58221  Biso   1.000  C
  C165     1.0000 0.77474  0.41779  0.22526  Biso   1.000  C
  C166     1.0000 0.22526  0.41779  0.77474  Biso   1.000  C
  C167     1.0000 0.77474  0.58221  0.77474  Biso   1.000  C
  C168     1.0000 0.22526  0.58221  0.22526  Biso   1.000  C
  C169     1.0000 0.77474  0.22526  0.58221  Biso   1.000  C
  C170     1.0000 0.22526  0.77474  0.58221  Biso   1.000  C
  C171     1.0000 0.77474  0.77474  0.41779  Biso   1.000  C
  C172     1.0000 0.22526  0.22526  0.41779  Biso   1.000  C
  C173     1.0000 0.72526  0.41779  0.72526  Biso   1.000  C
  C174     1.0000 0.27474  0.41779  0.27474  Biso   1.000  C
  C175     1.0000 0.27474  0.58221  0.72526  Biso   1.000  C
  C176     1.0000 0.72526  0.58221  0.27474  Biso   1.000  C
  C177     1.0000 0.58221  0.27474  0.72526  Biso   1.000  C
  C178     1.0000 0.58221  0.72526  0.27474  Biso   1.000  C
  C179     1.0000 0.41779  0.72526  0.72526  Biso   1.000  C
  C180     1.0000 0.41779  0.27474  0.27474  Biso   1.000  C
  C181     1.0000 0.58221  0.22526  0.22526  Biso   1.000  C
  C182     1.0000 0.58221  0.77474  0.77474  Biso   1.000  C
  C183     1.0000 0.41779  0.22526  0.77474  Biso   1.000  C
  C184     1.0000 0.41779  0.77474  0.22526  Biso   1.000  C
  C185     1.0000 0.41779  0.72526  0.27474  Biso   1.000  C
  C186     1.0000 0.41779  0.27474  0.72526  Biso   1.000  C
  C187     1.0000 0.58221  0.27474  0.27474  Biso   1.000  C
  C188     1.0000 0.58221  0.72526  0.72526  Biso   1.000  C
  C189     1.0000 0.41779  0.77474  0.77474  Biso   1.000  C
  C190     1.0000 0.41779  0.22526  0.22526  Biso   1.000  C
  C191     1.0000 0.58221  0.77474  0.22526  Biso   1.000  C
  C192     1.0000 0.58221  0.22526  0.77474  Biso   1.000  C
  C193     1.0000 0.27474  0.22480  0.04130  Biso   1.000  C
  C194     1.0000 0.72526  0.77520  0.04130  Biso   1.000  C
  C195     1.0000 0.72526  0.22480  0.95870  Biso   1.000  C
  C196     1.0000 0.27474  0.77520  0.95870  Biso   1.000  C
  C197     1.0000 0.04130  0.27474  0.22480  Biso   1.000  C
  C198     1.0000 0.04130  0.72526  0.77520  Biso   1.000  C
  C199     1.0000 0.95870  0.72526  0.22480  Biso   1.000  C
  C200     1.0000 0.95870  0.27474  0.77520  Biso   1.000  C
  C201     1.0000 0.22480  0.04130  0.27474  Biso   1.000  C
  C202     1.0000 0.77520  0.04130  0.72526  Biso   1.000  C
  C203     1.0000 0.22480  0.95870  0.72526  Biso   1.000  C
  C204     1.0000 0.77520  0.95870  0.27474  Biso   1.000  C
  C205     1.0000 0.22480  0.27474  0.95870  Biso   1.000  C
  C206     1.0000 0.77520  0.72526  0.95870  Biso   1.000  C
  C207     1.0000 0.22480  0.72526  0.04130  Biso   1.000  C
  C208     1.0000 0.77520  0.27474  0.04130  Biso   1.000  C
  C209     1.0000 0.27474  0.04130  0.77520  Biso   1.000  C
  C210     1.0000 0.72526  0.04130  0.22480  Biso   1.000  C
  C211     1.0000 0.72526  0.95870  0.77520  Biso   1.000  C
  C212     1.0000 0.27474  0.95870  0.22480  Biso   1.000  C
  C213     1.0000 0.04130  0.22480  0.72526  Biso   1.000  C
  C214     1.0000 0.04130  0.77520  0.27474  Biso   1.000  C
  C215     1.0000 0.95870  0.22480  0.27474  Biso   1.000  C
  C216     1.0000 0.95870  0.77520  0.72526  Biso   1.000  C
  C217     1.0000 0.72526  0.77520  0.95870  Biso   1.000  C
  C218     1.0000 0.27474  0.22480  0.95870  Biso   1.000  C
  C219     1.0000 0.27474  0.77520  0.04130  Biso   1.000  C
  C220     1.0000 0.72526  0.22480  0.04130  Biso   1.000  C
  C221     1.0000 0.95870  0.72526  0.77520  Biso   1.000  C
  C222     1.0000 0.95870  0.27474  0.22480  Biso   1.000  C
  C223     1.0000 0.04130  0.27474  0.77520  Biso   1.000  C
  C224     1.0000 0.04130  0.72526  0.22480  Biso   1.000  C
  C225     1.0000 0.77520  0.95870  0.72526  Biso   1.000  C
  C226     1.0000 0.22480  0.95870  0.27474  Biso   1.000  C
  C227     1.0000 0.77520  0.04130  0.27474  Biso   1.000  C
  C228     1.0000 0.22480  0.04130  0.72526  Biso   1.000  C
  C229     1.0000 0.77520  0.72526  0.04130  Biso   1.000  C
  C230     1.0000 0.22480  0.27474  0.04130  Biso   1.000  C
  C231     1.0000 0.77520  0.27474  0.95870  Biso   1.000  C
  C232     1.0000 0.22480  0.72526  0.95870  Biso   1.000  C
  C233     1.0000 0.72526  0.95870  0.22480  Biso   1.000  C
  C234     1.0000 0.27474  0.95870  0.77520  Biso   1.000  C
  C235     1.0000 0.27474  0.04130  0.22480  Biso   1.000  C
  C236     1.0000 0.72526  0.04130  0.77520  Biso   1.000  C
  C237     1.0000 0.95870  0.77520  0.27474  Biso   1.000  C
  C238     1.0000 0.95870  0.22480  0.72526  Biso   1.000  C
  C239     1.0000 0.04130  0.77520  0.72526  Biso   1.000  C
  C240     1.0000 0.04130  0.22480  0.27474  Biso   1.000  C
  C241     1.0000 0.27474  0.72480  0.54130  Biso   1.000  C
  C242     1.0000 0.72526  0.27520  0.54130  Biso   1.000  C
  C243     1.0000 0.72526  0.72480  0.45870  Biso   1.000  C
  C244     1.0000 0.27474  0.27520  0.45870  Biso   1.000  C
  C245     1.0000 0.22480  0.54130  0.77474  Biso   1.000  C
  C246     1.0000 0.77520  0.54130  0.22526  Biso   1.000  C
  C247     1.0000 0.22480  0.45870  0.22526  Biso   1.000  C
  C248     1.0000 0.77520  0.45870  0.77474  Biso   1.000  C
  C249     1.0000 0.22480  0.77474  0.45870  Biso   1.000  C
  C250     1.0000 0.77520  0.22526  0.45870  Biso   1.000  C
  C251     1.0000 0.22480  0.22526  0.54130  Biso   1.000  C
  C252     1.0000 0.77520  0.77474  0.54130  Biso   1.000  C
  C253     1.0000 0.27474  0.54130  0.27520  Biso   1.000  C
  C254     1.0000 0.72526  0.54130  0.72480  Biso   1.000  C
  C255     1.0000 0.72526  0.45870  0.27520  Biso   1.000  C
  C256     1.0000 0.27474  0.45870  0.72480  Biso   1.000  C
  C257     1.0000 0.72526  0.27520  0.45870  Biso   1.000  C
  C258     1.0000 0.27474  0.72480  0.45870  Biso   1.000  C
  C259     1.0000 0.27474  0.27520  0.54130  Biso   1.000  C
  C260     1.0000 0.72526  0.72480  0.54130  Biso   1.000  C
  C261     1.0000 0.77520  0.45870  0.22526  Biso   1.000  C
  C262     1.0000 0.22480  0.45870  0.77474  Biso   1.000  C
  C263     1.0000 0.77520  0.54130  0.77474  Biso   1.000  C
  C264     1.0000 0.22480  0.54130  0.22526  Biso   1.000  C
  C265     1.0000 0.77520  0.22526  0.54130  Biso   1.000  C
  C266     1.0000 0.22480  0.77474  0.54130  Biso   1.000  C
  C267     1.0000 0.77520  0.77474  0.45870  Biso   1.000  C
  C268     1.0000 0.22480  0.22526  0.45870  Biso   1.000  C
  C269     1.0000 0.72526  0.45870  0.72480  Biso   1.000  C
  C270     1.0000 0.27474  0.45870  0.27520  Biso   1.000  C
  C271     1.0000 0.27474  0.54130  0.72480  Biso   1.000  C
  C272     1.0000 0.72526  0.54130  0.27520  Biso   1.000  C
  C273     1.0000 0.54130  0.27474  0.72480  Biso   1.000  C
  C274     1.0000 0.54130  0.72526  0.27520  Biso   1.000  C
  C275     1.0000 0.45870  0.72526  0.72480  Biso   1.000  C
  C276     1.0000 0.45870  0.27474  0.27520  Biso   1.000  C
  C277     1.0000 0.54130  0.22480  0.22526  Biso   1.000  C
  C278     1.0000 0.54130  0.77520  0.77474  Biso   1.000  C
  C279     1.0000 0.45870  0.22480  0.77474  Biso   1.000  C
  C280     1.0000 0.45870  0.77520  0.22526  Biso   1.000  C
  C281     1.0000 0.45870  0.72526  0.27520  Biso   1.000  C
  C282     1.0000 0.45870  0.27474  0.72480  Biso   1.000  C
  C283     1.0000 0.54130  0.27474  0.27520  Biso   1.000  C
  C284     1.0000 0.54130  0.72526  0.72480  Biso   1.000  C
  C285     1.0000 0.45870  0.77520  0.77474  Biso   1.000  C
  C286     1.0000 0.45870  0.22480  0.22526  Biso   1.000  C
  C287     1.0000 0.54130  0.77520  0.22526  Biso   1.000  C
  C288     1.0000 0.54130  0.22480  0.77474  Biso   1.000  C
  C289     1.0000 0.25000  0.25000  0.02061  Biso   1.000  C
  C290     1.0000 0.75000  0.75000  0.02061  Biso   1.000  C
  C291     1.0000 0.75000  0.25000  0.97939  Biso   1.000  C
  C292     1.0000 0.25000  0.75000  0.97939  Biso   1.000  C
  C293     1.0000 0.02061  0.25000  0.25000  Biso   1.000  C
  C294     1.0000 0.02061  0.75000  0.75000  Biso   1.000  C
  C295     1.0000 0.97939  0.75000  0.25000  Biso   1.000  C
  C296     1.0000 0.97939  0.25000  0.75000  Biso   1.000  C
  C297     1.0000 0.25000  0.02061  0.25000  Biso   1.000  C
  C298     1.0000 0.75000  0.02061  0.75000  Biso   1.000  C
  C299     1.0000 0.25000  0.97939  0.75000  Biso   1.000  C
  C300     1.0000 0.75000  0.97939  0.25000  Biso   1.000  C
  C301     1.0000 0.25000  0.25000  0.97939  Biso   1.000  C
  C302     1.0000 0.75000  0.75000  0.97939  Biso   1.000  C
  C303     1.0000 0.25000  0.75000  0.02061  Biso   1.000  C
  C304     1.0000 0.75000  0.25000  0.02061  Biso   1.000  C
  C305     1.0000 0.25000  0.02061  0.75000  Biso   1.000  C
  C306     1.0000 0.75000  0.02061  0.25000  Biso   1.000  C
  C307     1.0000 0.75000  0.97939  0.75000  Biso   1.000  C
  C308     1.0000 0.25000  0.97939  0.25000  Biso   1.000  C
  C309     1.0000 0.02061  0.25000  0.75000  Biso   1.000  C
  C310     1.0000 0.02061  0.75000  0.25000  Biso   1.000  C
  C311     1.0000 0.97939  0.25000  0.25000  Biso   1.000  C
  C312     1.0000 0.97939  0.75000  0.75000  Biso   1.000  C
  C313     1.0000 0.25000  0.75000  0.52061  Biso   1.000  C
  C314     1.0000 0.75000  0.25000  0.52061  Biso   1.000  C
  C315     1.0000 0.75000  0.75000  0.47939  Biso   1.000  C
  C316     1.0000 0.25000  0.25000  0.47939  Biso   1.000  C
  C317     1.0000 0.25000  0.52061  0.75000  Biso   1.000  C
  C318     1.0000 0.75000  0.52061  0.25000  Biso   1.000  C
  C319     1.0000 0.25000  0.47939  0.25000  Biso   1.000  C
  C320     1.0000 0.75000  0.47939  0.75000  Biso   1.000  C
  C321     1.0000 0.25000  0.75000  0.47939  Biso   1.000  C
  C322     1.0000 0.75000  0.25000  0.47939  Biso   1.000  C
  C323     1.0000 0.25000  0.25000  0.52061  Biso   1.000  C
  C324     1.0000 0.75000  0.75000  0.52061  Biso   1.000  C
  C325     1.0000 0.25000  0.52061  0.25000  Biso   1.000  C
  C326     1.0000 0.75000  0.52061  0.75000  Biso   1.000  C
  C327     1.0000 0.75000  0.47939  0.25000  Biso   1.000  C
  C328     1.0000 0.25000  0.47939  0.75000  Biso   1.000  C
  C329     1.0000 0.52061  0.25000  0.75000  Biso   1.000  C
  C330     1.0000 0.52061  0.75000  0.25000  Biso   1.000  C
  C331     1.0000 0.47939  0.75000  0.75000  Biso   1.000  C
  C332     1.0000 0.47939  0.25000  0.25000  Biso   1.000  C
  C333     1.0000 0.52061  0.25000  0.25000  Biso   1.000  C
  C334     1.0000 0.52061  0.75000  0.75000  Biso   1.000  C
  C335     1.0000 0.47939  0.25000  0.75000  Biso   1.000  C
  C336     1.0000 0.47939  0.75000  0.25000  Biso   1.000  C
  H1       1.0000 0.29205  0.20827  0.09621  Biso   1.000  H
  H2       1.0000 0.70795  0.79173  0.09621  Biso   1.000  H
  H3       1.0000 0.70795  0.20827  0.90379  Biso   1.000  H
  H4       1.0000 0.29205  0.79173  0.90379  Biso   1.000  H
  H5       1.0000 0.09621  0.29205  0.20827  Biso   1.000  H
  H6       1.0000 0.09621  0.70795  0.79173  Biso   1.000  H
  H7       1.0000 0.90379  0.70795  0.20827  Biso   1.000  H
  H8       1.0000 0.90379  0.29205  0.79173  Biso   1.000  H
  H9       1.0000 0.20827  0.09621  0.29205  Biso   1.000  H
  H10      1.0000 0.79173  0.09621  0.70795  Biso   1.000  H
  H11      1.0000 0.20827  0.90379  0.70795  Biso   1.000  H
  H12      1.0000 0.79173  0.90379  0.29205  Biso   1.000  H
  H13      1.0000 0.20827  0.29205  0.90379  Biso   1.000  H
  H14      1.0000 0.79173  0.70795  0.90379  Biso   1.000  H
  H15      1.0000 0.20827  0.70795  0.09621  Biso   1.000  H
  H16      1.0000 0.79173  0.29205  0.09621  Biso   1.000  H
  H17      1.0000 0.29205  0.09621  0.79173  Biso   1.000  H
  H18      1.0000 0.70795  0.09621  0.20827  Biso   1.000  H
  H19      1.0000 0.70795  0.90379  0.79173  Biso   1.000  H
  H20      1.0000 0.29205  0.90379  0.20827  Biso   1.000  H
  H21      1.0000 0.09621  0.20827  0.70795  Biso   1.000  H
  H22      1.0000 0.09621  0.79173  0.29205  Biso   1.000  H
  H23      1.0000 0.90379  0.20827  0.29205  Biso   1.000  H
  H24      1.0000 0.90379  0.79173  0.70795  Biso   1.000  H
  H25      1.0000 0.70795  0.79173  0.90379  Biso   1.000  H
  H26      1.0000 0.29205  0.20827  0.90379  Biso   1.000  H
  H27      1.0000 0.29205  0.79173  0.09621  Biso   1.000  H
  H28      1.0000 0.70795  0.20827  0.09621  Biso   1.000  H
  H29      1.0000 0.90379  0.70795  0.79173  Biso   1.000  H
  H30      1.0000 0.90379  0.29205  0.20827  Biso   1.000  H
  H31      1.0000 0.09621  0.29205  0.79173  Biso   1.000  H
  H32      1.0000 0.09621  0.70795  0.20827  Biso   1.000  H
  H33      1.0000 0.79173  0.90379  0.70795  Biso   1.000  H
  H34      1.0000 0.20827  0.90379  0.29205  Biso   1.000  H
  H35      1.0000 0.79173  0.09621  0.29205  Biso   1.000  H
  H36      1.0000 0.20827  0.09621  0.70795  Biso   1.000  H
  H37      1.0000 0.79173  0.70795  0.09621  Biso   1.000  H
  H38      1.0000 0.20827  0.29205  0.09621  Biso   1.000  H
  H39      1.0000 0.79173  0.29205  0.90379  Biso   1.000  H
  H40      1.0000 0.20827  0.70795  0.90379  Biso   1.000  H
  H41      1.0000 0.70795  0.90379  0.20827  Biso   1.000  H
  H42      1.0000 0.29205  0.90379  0.79173  Biso   1.000  H
  H43      1.0000 0.29205  0.09621  0.20827  Biso   1.000  H
  H44      1.0000 0.70795  0.09621  0.79173  Biso   1.000  H
  H45      1.0000 0.90379  0.79173  0.29205  Biso   1.000  H
  H46      1.0000 0.90379  0.20827  0.70795  Biso   1.000  H
  H47      1.0000 0.09621  0.79173  0.70795  Biso   1.000  H
  H48      1.0000 0.09621  0.20827  0.29205  Biso   1.000  H
  H49      1.0000 0.29205  0.70827  0.59621  Biso   1.000  H
  H50      1.0000 0.70795  0.29173  0.59621  Biso   1.000  H
  H51      1.0000 0.70795  0.70827  0.40379  Biso   1.000  H
  H52      1.0000 0.29205  0.29173  0.40379  Biso   1.000  H
  H53      1.0000 0.20827  0.59621  0.79205  Biso   1.000  H
  H54      1.0000 0.79173  0.59621  0.20795  Biso   1.000  H
  H55      1.0000 0.20827  0.40379  0.20795  Biso   1.000  H
  H56      1.0000 0.79173  0.40379  0.79205  Biso   1.000  H
  H57      1.0000 0.20827  0.79205  0.40379  Biso   1.000  H
  H58      1.0000 0.79173  0.20795  0.40379  Biso   1.000  H
  H59      1.0000 0.20827  0.20795  0.59621  Biso   1.000  H
  H60      1.0000 0.79173  0.79205  0.59621  Biso   1.000  H
  H61      1.0000 0.29205  0.59621  0.29173  Biso   1.000  H
  H62      1.0000 0.70795  0.59621  0.70827  Biso   1.000  H
  H63      1.0000 0.70795  0.40379  0.29173  Biso   1.000  H
  H64      1.0000 0.29205  0.40379  0.70827  Biso   1.000  H
  H65      1.0000 0.70795  0.29173  0.40379  Biso   1.000  H
  H66      1.0000 0.29205  0.70827  0.40379  Biso   1.000  H
  H67      1.0000 0.29205  0.29173  0.59621  Biso   1.000  H
  H68      1.0000 0.70795  0.70827  0.59621  Biso   1.000  H
  H69      1.0000 0.79173  0.40379  0.20795  Biso   1.000  H
  H70      1.0000 0.20827  0.40379  0.79205  Biso   1.000  H
  H71      1.0000 0.79173  0.59621  0.79205  Biso   1.000  H
  H72      1.0000 0.20827  0.59621  0.20795  Biso   1.000  H
  H73      1.0000 0.79173  0.20795  0.59621  Biso   1.000  H
  H74      1.0000 0.20827  0.79205  0.59621  Biso   1.000  H
  H75      1.0000 0.79173  0.79205  0.40379  Biso   1.000  H
  H76      1.0000 0.20827  0.20795  0.40379  Biso   1.000  H
  H77      1.0000 0.70795  0.40379  0.70827  Biso   1.000  H
  H78      1.0000 0.29205  0.40379  0.29173  Biso   1.000  H
  H79      1.0000 0.29205  0.59621  0.70827  Biso   1.000  H
  H80      1.0000 0.70795  0.59621  0.29173  Biso   1.000  H
  H81      1.0000 0.59621  0.29205  0.70827  Biso   1.000  H
  H82      1.0000 0.59621  0.70795  0.29173  Biso   1.000  H
  H83      1.0000 0.40379  0.70795  0.70827  Biso   1.000  H
  H84      1.0000 0.40379  0.29205  0.29173  Biso   1.000  H
  H85      1.0000 0.59621  0.20827  0.20795  Biso   1.000  H
  H86      1.0000 0.59621  0.79173  0.79205  Biso   1.000  H
  H87      1.0000 0.40379  0.20827  0.79205  Biso   1.000  H
  H88      1.0000 0.40379  0.79173  0.20795  Biso   1.000  H
  H89      1.0000 0.40379  0.70795  0.29173  Biso   1.000  H
  H90      1.0000 0.40379  0.29205  0.70827  Biso   1.000  H
  H91      1.0000 0.59621  0.29205  0.29173  Biso   1.000  H
  H92      1.0000 0.59621  0.70795  0.70827  Biso   1.000  H
  H93      1.0000 0.40379  0.79173  0.79205  Biso   1.000  H
  H94      1.0000 0.40379  0.20827  0.20795  Biso   1.000  H
  H95      1.0000 0.59621  0.79173  0.20795  Biso   1.000  H
  H96      1.0000 0.59621  0.20827  0.79205  Biso   1.000  H
  H97      1.0000 0.29165  0.20727  0.02747  Biso   1.000  H
  H98      1.0000 0.70835  0.79273  0.02747  Biso   1.000  H
  H99      1.0000 0.70835  0.20727  0.97253  Biso   1.000  H
  H100     1.0000 0.29165  0.79273  0.97253  Biso   1.000  H
  H101     1.0000 0.02747  0.29165  0.20727  Biso   1.000  H
  H102     1.0000 0.02747  0.70835  0.79273  Biso   1.000  H
  H103     1.0000 0.97253  0.70835  0.20727  Biso   1.000  H
  H104     1.0000 0.97253  0.29165  0.79273  Biso   1.000  H
  H105     1.0000 0.20727  0.02747  0.29165  Biso   1.000  H
  H106     1.0000 0.79273  0.02747  0.70835  Biso   1.000  H
  H107     1.0000 0.20727  0.97253  0.70835  Biso   1.000  H
  H108     1.0000 0.79273  0.97253  0.29165  Biso   1.000  H
  H109     1.0000 0.20727  0.29165  0.97253  Biso   1.000  H
  H110     1.0000 0.79273  0.70835  0.97253  Biso   1.000  H
  H111     1.0000 0.20727  0.70835  0.02747  Biso   1.000  H
  H112     1.0000 0.79273  0.29165  0.02747  Biso   1.000  H
  H113     1.0000 0.29165  0.02747  0.79273  Biso   1.000  H
  H114     1.0000 0.70835  0.02747  0.20727  Biso   1.000  H
  H115     1.0000 0.70835  0.97253  0.79273  Biso   1.000  H
  H116     1.0000 0.29165  0.97253  0.20727  Biso   1.000  H
  H117     1.0000 0.02747  0.20727  0.70835  Biso   1.000  H
  H118     1.0000 0.02747  0.79273  0.29165  Biso   1.000  H
  H119     1.0000 0.97253  0.20727  0.29165  Biso   1.000  H
  H120     1.0000 0.97253  0.79273  0.70835  Biso   1.000  H
  H121     1.0000 0.70835  0.79273  0.97253  Biso   1.000  H
  H122     1.0000 0.29165  0.20727  0.97253  Biso   1.000  H
  H123     1.0000 0.29165  0.79273  0.02747  Biso   1.000  H
  H124     1.0000 0.70835  0.20727  0.02747  Biso   1.000  H
  H125     1.0000 0.97253  0.70835  0.79273  Biso   1.000  H
  H126     1.0000 0.97253  0.29165  0.20727  Biso   1.000  H
  H127     1.0000 0.02747  0.29165  0.79273  Biso   1.000  H
  H128     1.0000 0.02747  0.70835  0.20727  Biso   1.000  H
  H129     1.0000 0.79273  0.97253  0.70835  Biso   1.000  H
  H130     1.0000 0.20727  0.97253  0.29165  Biso   1.000  H
  H131     1.0000 0.79273  0.02747  0.29165  Biso   1.000  H
  H132     1.0000 0.20727  0.02747  0.70835  Biso   1.000  H
  H133     1.0000 0.79273  0.70835  0.02747  Biso   1.000  H
  H134     1.0000 0.20727  0.29165  0.02747  Biso   1.000  H
  H135     1.0000 0.79273  0.29165  0.97253  Biso   1.000  H
  H136     1.0000 0.20727  0.70835  0.97253  Biso   1.000  H
  H137     1.0000 0.70835  0.97253  0.20727  Biso   1.000  H
  H138     1.0000 0.29165  0.97253  0.79273  Biso   1.000  H
  H139     1.0000 0.29165  0.02747  0.20727  Biso   1.000  H
  H140     1.0000 0.70835  0.02747  0.79273  Biso   1.000  H
  H141     1.0000 0.97253  0.79273  0.29165  Biso   1.000  H
  H142     1.0000 0.97253  0.20727  0.70835  Biso   1.000  H
  H143     1.0000 0.02747  0.79273  0.70835  Biso   1.000  H
  H144     1.0000 0.02747  0.20727  0.29165  Biso   1.000  H
  H145     1.0000 0.29165  0.70727  0.52747  Biso   1.000  H
  H146     1.0000 0.70835  0.29273  0.52747  Biso   1.000  H
  H147     1.0000 0.70835  0.70727  0.47253  Biso   1.000  H
  H148     1.0000 0.29165  0.29273  0.47253  Biso   1.000  H
  H149     1.0000 0.02747  0.79165  0.70727  Biso   1.000  H
  H150     1.0000 0.02747  0.20835  0.29273  Biso   1.000  H
  H151     1.0000 0.97253  0.20835  0.70727  Biso   1.000  H
  H152     1.0000 0.97253  0.79165  0.29273  Biso   1.000  H
  H153     1.0000 0.20727  0.52747  0.79165  Biso   1.000  H
  H154     1.0000 0.79273  0.52747  0.20835  Biso   1.000  H
  H155     1.0000 0.20727  0.47253  0.20835  Biso   1.000  H
  H156     1.0000 0.79273  0.47253  0.79165  Biso   1.000  H
  H157     1.0000 0.20727  0.79165  0.47253  Biso   1.000  H
  H158     1.0000 0.79273  0.20835  0.47253  Biso   1.000  H
  H159     1.0000 0.20727  0.20835  0.52747  Biso   1.000  H
  H160     1.0000 0.79273  0.79165  0.52747  Biso   1.000  H
  H161     1.0000 0.29165  0.52747  0.29273  Biso   1.000  H
  H162     1.0000 0.70835  0.52747  0.70727  Biso   1.000  H
  H163     1.0000 0.70835  0.47253  0.29273  Biso   1.000  H
  H164     1.0000 0.29165  0.47253  0.70727  Biso   1.000  H
  H165     1.0000 0.02747  0.70727  0.20835  Biso   1.000  H
  H166     1.0000 0.02747  0.29273  0.79165  Biso   1.000  H
  H167     1.0000 0.97253  0.70727  0.79165  Biso   1.000  H
  H168     1.0000 0.97253  0.29273  0.20835  Biso   1.000  H
  H169     1.0000 0.70835  0.29273  0.47253  Biso   1.000  H
  H170     1.0000 0.29165  0.70727  0.47253  Biso   1.000  H
  H171     1.0000 0.29165  0.29273  0.52747  Biso   1.000  H
  H172     1.0000 0.70835  0.70727  0.52747  Biso   1.000  H
  H173     1.0000 0.97253  0.20835  0.29273  Biso   1.000  H
  H174     1.0000 0.97253  0.79165  0.70727  Biso   1.000  H
  H175     1.0000 0.02747  0.79165  0.29273  Biso   1.000  H
  H176     1.0000 0.02747  0.20835  0.70727  Biso   1.000  H
  H177     1.0000 0.79273  0.47253  0.20835  Biso   1.000  H
  H178     1.0000 0.20727  0.47253  0.79165  Biso   1.000  H
  H179     1.0000 0.79273  0.52747  0.79165  Biso   1.000  H
  H180     1.0000 0.20727  0.52747  0.20835  Biso   1.000  H
  H181     1.0000 0.79273  0.20835  0.52747  Biso   1.000  H
  H182     1.0000 0.20727  0.79165  0.52747  Biso   1.000  H
  H183     1.0000 0.79273  0.79165  0.47253  Biso   1.000  H
  H184     1.0000 0.20727  0.20835  0.47253  Biso   1.000  H
  H185     1.0000 0.70835  0.47253  0.70727  Biso   1.000  H
  H186     1.0000 0.29165  0.47253  0.29273  Biso   1.000  H
  H187     1.0000 0.29165  0.52747  0.70727  Biso   1.000  H
  H188     1.0000 0.70835  0.52747  0.29273  Biso   1.000  H
  H189     1.0000 0.97253  0.29273  0.79165  Biso   1.000  H
  H190     1.0000 0.97253  0.70727  0.20835  Biso   1.000  H
  H191     1.0000 0.02747  0.29273  0.20835  Biso   1.000  H
  H192     1.0000 0.02747  0.70727  0.79165  Biso   1.000  H
  H193     1.0000 0.79165  0.20727  0.52747  Biso   1.000  H
  H194     1.0000 0.20835  0.79273  0.52747  Biso   1.000  H
  H195     1.0000 0.20835  0.20727  0.47253  Biso   1.000  H
  H196     1.0000 0.79165  0.79273  0.47253  Biso   1.000  H
  H197     1.0000 0.52747  0.29165  0.70727  Biso   1.000  H
  H198     1.0000 0.52747  0.70835  0.29273  Biso   1.000  H
  H199     1.0000 0.47253  0.70835  0.70727  Biso   1.000  H
  H200     1.0000 0.47253  0.29165  0.29273  Biso   1.000  H
  H201     1.0000 0.70727  0.02747  0.79165  Biso   1.000  H
  H202     1.0000 0.29273  0.02747  0.20835  Biso   1.000  H
  H203     1.0000 0.70727  0.97253  0.20835  Biso   1.000  H
  H204     1.0000 0.29273  0.97253  0.79165  Biso   1.000  H
  H205     1.0000 0.70727  0.29165  0.47253  Biso   1.000  H
  H206     1.0000 0.29273  0.70835  0.47253  Biso   1.000  H
  H207     1.0000 0.70727  0.70835  0.52747  Biso   1.000  H
  H208     1.0000 0.29273  0.29165  0.52747  Biso   1.000  H
  H209     1.0000 0.79165  0.02747  0.29273  Biso   1.000  H
  H210     1.0000 0.20835  0.02747  0.70727  Biso   1.000  H
  H211     1.0000 0.20835  0.97253  0.29273  Biso   1.000  H
  H212     1.0000 0.79165  0.97253  0.70727  Biso   1.000  H
  H213     1.0000 0.52747  0.20727  0.20835  Biso   1.000  H
  H214     1.0000 0.52747  0.79273  0.79165  Biso   1.000  H
  H215     1.0000 0.47253  0.20727  0.79165  Biso   1.000  H
  H216     1.0000 0.47253  0.79273  0.20835  Biso   1.000  H
  H217     1.0000 0.20835  0.79273  0.47253  Biso   1.000  H
  H218     1.0000 0.79165  0.20727  0.47253  Biso   1.000  H
  H219     1.0000 0.79165  0.79273  0.52747  Biso   1.000  H
  H220     1.0000 0.20835  0.20727  0.52747  Biso   1.000  H
  H221     1.0000 0.47253  0.70835  0.29273  Biso   1.000  H
  H222     1.0000 0.47253  0.29165  0.70727  Biso   1.000  H
  H223     1.0000 0.52747  0.29165  0.29273  Biso   1.000  H
  H224     1.0000 0.52747  0.70835  0.70727  Biso   1.000  H
  H225     1.0000 0.29273  0.97253  0.20835  Biso   1.000  H
  H226     1.0000 0.70727  0.97253  0.79165  Biso   1.000  H
  H227     1.0000 0.29273  0.02747  0.79165  Biso   1.000  H
  H228     1.0000 0.70727  0.02747  0.20835  Biso   1.000  H
  H229     1.0000 0.29273  0.70835  0.52747  Biso   1.000  H
  H230     1.0000 0.70727  0.29165  0.52747  Biso   1.000  H
  H231     1.0000 0.29273  0.29165  0.47253  Biso   1.000  H
  H232     1.0000 0.70727  0.70835  0.47253  Biso   1.000  H
  H233     1.0000 0.20835  0.97253  0.70727  Biso   1.000  H
  H234     1.0000 0.79165  0.97253  0.29273  Biso   1.000  H
  H235     1.0000 0.79165  0.02747  0.70727  Biso   1.000  H
  H236     1.0000 0.20835  0.02747  0.29273  Biso   1.000  H
  H237     1.0000 0.47253  0.79273  0.79165  Biso   1.000  H
  H238     1.0000 0.47253  0.20727  0.20835  Biso   1.000  H
  H239     1.0000 0.52747  0.79273  0.20835  Biso   1.000  H
  H240     1.0000 0.52747  0.20727  0.79165  Biso   1.000  H
  H241     1.0000 0.79165  0.70727  0.02747  Biso   1.000  H
  H242     1.0000 0.20835  0.29273  0.02747  Biso   1.000  H
  H243     1.0000 0.20835  0.70727  0.97253  Biso   1.000  H
  H244     1.0000 0.79165  0.29273  0.97253  Biso   1.000  H
  H245     1.0000 0.52747  0.79165  0.20727  Biso   1.000  H
  H246     1.0000 0.52747  0.20835  0.79273  Biso   1.000  H
  H247     1.0000 0.47253  0.20835  0.20727  Biso   1.000  H
  H248     1.0000 0.47253  0.79165  0.79273  Biso   1.000  H
  H249     1.0000 0.70727  0.52747  0.29165  Biso   1.000  H
  H250     1.0000 0.29273  0.52747  0.70835  Biso   1.000  H
  H251     1.0000 0.70727  0.47253  0.70835  Biso   1.000  H
  H252     1.0000 0.29273  0.47253  0.29165  Biso   1.000  H
  H253     1.0000 0.70727  0.79165  0.97253  Biso   1.000  H
  H254     1.0000 0.29273  0.20835  0.97253  Biso   1.000  H
  H255     1.0000 0.70727  0.20835  0.02747  Biso   1.000  H
  H256     1.0000 0.29273  0.79165  0.02747  Biso   1.000  H
  H257     1.0000 0.79165  0.52747  0.79273  Biso   1.000  H
  H258     1.0000 0.20835  0.52747  0.20727  Biso   1.000  H
  H259     1.0000 0.20835  0.47253  0.79273  Biso   1.000  H
  H260     1.0000 0.79165  0.47253  0.20727  Biso   1.000  H
  H261     1.0000 0.52747  0.70727  0.70835  Biso   1.000  H
  H262     1.0000 0.52747  0.29273  0.29165  Biso   1.000  H
  H263     1.0000 0.47253  0.70727  0.29165  Biso   1.000  H
  H264     1.0000 0.47253  0.29273  0.70835  Biso   1.000  H
  H265     1.0000 0.20835  0.29273  0.97253  Biso   1.000  H
  H266     1.0000 0.79165  0.70727  0.97253  Biso   1.000  H
  H267     1.0000 0.79165  0.29273  0.02747  Biso   1.000  H
  H268     1.0000 0.20835  0.70727  0.02747  Biso   1.000  H
  H269     1.0000 0.47253  0.20835  0.79273  Biso   1.000  H
  H270     1.0000 0.47253  0.79165  0.20727  Biso   1.000  H
  H271     1.0000 0.52747  0.79165  0.79273  Biso   1.000  H
  H272     1.0000 0.52747  0.20835  0.20727  Biso   1.000  H
  H273     1.0000 0.29273  0.47253  0.70835  Biso   1.000  H
  H274     1.0000 0.70727  0.47253  0.29165  Biso   1.000  H
  H275     1.0000 0.29273  0.52747  0.29165  Biso   1.000  H
  H276     1.0000 0.70727  0.52747  0.70835  Biso   1.000  H
  H277     1.0000 0.29273  0.20835  0.02747  Biso   1.000  H
  H278     1.0000 0.70727  0.79165  0.02747  Biso   1.000  H
  H279     1.0000 0.29273  0.79165  0.97253  Biso   1.000  H
  H280     1.0000 0.70727  0.20835  0.97253  Biso   1.000  H
  H281     1.0000 0.20835  0.47253  0.20727  Biso   1.000  H
  H282     1.0000 0.79165  0.47253  0.79273  Biso   1.000  H
  H283     1.0000 0.79165  0.52747  0.20727  Biso   1.000  H
  H284     1.0000 0.20835  0.52747  0.79273  Biso   1.000  H
  H285     1.0000 0.47253  0.29273  0.29165  Biso   1.000  H
  H286     1.0000 0.47253  0.70727  0.70835  Biso   1.000  H
  H287     1.0000 0.52747  0.29273  0.70835  Biso   1.000  H
  H288     1.0000 0.52747  0.70727  0.29165  Biso   1.000  H
